-------------------------------------------------------
          Amber 22 PMEMD                              2022
          -------------------------------------------------------

  [-O]verwriting output

File Assignments:

 Here is the input file:

 Explicit solvent molecular dynamics constant pressure 50 ns MD
  &cntrl
   imin=0, irest=1, ntx=5,
   ntpr=500000, ntwx=500000, ntwr=500000, nstlim=25000000,
   dt=0.002, ntt=3, tempi=300,
   temp0=300, gamma_ln=1.0, ig=-1,
   ntp=1, ntc=2, ntf=2, cut=9,
   ntb=2, iwrap=1, ioutfm=1,
   nmropt=1,
 /
 &wt type='DUMPFREQ', istep1=10 /
 &wt type='END' /
 DISANG=disres.rst
 DUMPAVE=dist_md.txt

Note: ig = -1. Setting random seed to   429663 based on wallclock time in
      microseconds.

--------------------------------------------------------------------------------
   1.  RESOURCE   USE:
--------------------------------------------------------------------------------

 getting box info from netcdf restart file
 NATOM  =   28883 NTYPES =      26 NBONH =   27100 MBONA  =    1812
 NTHETH =    3878 MTHETA =    2481 NPHIH =    7969 MPHIA  =    7848
 NHPARM =       0 NPARM  =       0 NNB   =   53078 NRES   =    8709
 NBONA  =    1812 NTHETA =    2481 NPHIA =    7848 NUMBND =      85
 NUMANG =     180 NPTRA  =     200 NATYP =      50 NPHB   =       0
 IFBOX  =       1 NMXRS  =      25 IFCAP =       0 NEXTRA =       0
 NCOPY  =       0

     BOX TYPE: RECTILINEAR

--------------------------------------------------------------------------------
   2.  CONTROL  DATA  FOR  THE  RUN
--------------------------------------------------------------------------------

default_name

General flags:
     imin    =       0, nmropt  =       1

Nature and format of input:
     ntx     =       5, irest   =       1, ntrx    =       1

Nature and format of output:
     ntxo    =       2, ntpr    =  500000, ntrx    =       1, ntwr    =  500000
     iwrap   =       1, ntwx    =  500000, ntwv    =       0, ntwe    =       0
     ioutfm  =       1, ntwprt  =       0, idecomp =       0, rbornstat=      0

Potential function:
     ntf     =       2, ntb     =       2, igb     =       0, nsnb    =      25
     ipol    =       0, gbsa    =       0, iesp    =       0
     dielc   =   1.00000, cut     =   9.00000, intdiel =   1.00000

Frozen or restrained atoms:
     ibelly  =       0, ntr     =       0

Molecular dynamics:
     nstlim  =  25000000, nscm    =      1000, nrespa  =         1
     t       =   0.00000, dt      =   0.00200, vlimit  =  -1.00000

Langevin dynamics temperature regulation:
     ig      =  429663
     temp0   = 300.00000, tempi   = 300.00000, gamma_ln=   1.00000

Pressure regulation:
     ntp     =       1
     pres0   =   1.00000, comp    =  44.60000, taup    =   1.00000

SHAKE:
     ntc     =       2, jfastw  =       0
     tol     =   0.00001

NMR refinement options:
     iscale  =       0, noeskp  =       1, ipnlty  =       1, mxsub   =       1
     scalm   = 100.00000, pencut  =   0.10000, tausw   =   0.10000

Ewald parameters:
     verbose =       0, ew_type =       0, nbflag  =       1, use_pme =       1
     vdwmeth =       1, eedmeth =       1, netfrc  =       1
     Box X =   71.387   Box Y =   63.095   Box Z =   63.872
     Alpha =   90.000   Beta  =   90.000   Gamma =   90.000
     NFFT1 =   72       NFFT2 =   64       NFFT3 =   64
     Cutoff=    9.000   Tol   =0.100E-04
     Ewald Coefficient =  0.30768
     Interpolation order =    4

--------------------------------------------------------------------------------
   3.  ATOMIC COORDINATES AND VELOCITIES
--------------------------------------------------------------------------------

default_name
 begin time read from input coords =  4000.000 ps

           Begin reading energy term weight changes/NMR restraints
 WEIGHT CHANGES:
 DUMPFREQ     10      0    0.000000    0.000000      0      0
                         ** No weight changes given **

 RESTRAINTS:
 Requested file redirections:
  DISANG    = disres.rst
  DUMPAVE   = dist_md.txt
 Restraints will be read from file: disres.rst
Here are comments from the DISANG input file:

                       Number of restraints read =     8

                  Done reading weight changes/NMR restraints

 Number of triangulated 3-point waters found:     8462

     Sum of charges from parm topology file =  -0.00200012
     Forcing neutrality...

--------------------------------------------------------------------------------
   4.  RESULTS
 NSTEP =   500000   TIME(PS) =    5000.000  TEMP(K) =   301.54  PRESS =   -75.5
 Etot   =    -71116.8199  EKtot   =     17841.6543  EPtot      =    -88958.4742
 BOND   =       680.9683  ANGLE   =      1870.6732  DIHED      =      2878.6476
 1-4 NB =       798.5081  1-4 EEL =      8982.4050  VDWAALS    =     10013.5404
 EELEC  =   -114190.5815  EHBOND  =         0.0000  RESTRAINT  =         7.3646
 EAMBER (non-restraint)  =    -88965.8388
 EKCMT  =      7653.1081  VIRIAL  =      8120.5830  VOLUME     =    286875.1427
                                                    Density    =         1.0295
 ------------------------------------------------------------------------------

      A V E R A G E S   O V E R      50 S T E P S

 NSTEP = 25000000   TIME(PS) =   54000.000  TEMP(K) =   299.86  PRESS =    -9.4
 Etot   =    -71101.4658  EKtot   =     17742.2575  EPtot      =    -88843.7233
 BOND   =       689.2963  ANGLE   =      1885.9139  DIHED      =      2856.5237
 1-4 NB =       803.3029  1-4 EEL =      8902.9321  VDWAALS    =     10049.1328
 EELEC  =   -114039.4991  EHBOND  =         0.0000  RESTRAINT  =         8.6741
 EAMBER (non-restraint)  =    -88852.3975
 EKCMT  =      7609.8501  VIRIAL  =      7668.3305  VOLUME     =    287563.2814
                                                    Density    =         1.0270
 ------------------------------------------------------------------------------

      R M S  F L U C T U A T I O N S

 NSTEP = 25000000   TIME(PS) =   54000.000  TEMP(K) =     1.64  PRESS =   118.1
 Etot   =       155.4549  EKtot   =        97.2576  EPtot      =       130.4595
 BOND   =        19.7700  ANGLE   =        30.9743  DIHED      =        18.6833
 1-4 NB =        10.8465  1-4 EEL =        45.8508  VDWAALS    =       109.5718
 EELEC  =       209.8407  EHBOND  =         0.0000  RESTRAINT  =         2.5237
 EAMBER (non-restraint)  =       127.9359
 EKCMT  =        69.6849  VIRIAL  =       733.1634  VOLUME     =       485.9829
                                                    Density    =         0.0017
 ------------------------------------------------------------------------------
