-------------------------------------------------------
          Amber 22 PMEMD                              2022
          -------------------------------------------------------

  [-O]verwriting output

File Assignments:

 Here is the input file:

 Explicit solvent molecular dynamics constant pressure 50 ns MD
  &cntrl
   imin=0, irest=1, ntx=5,
   ntpr=500000, ntwx=500000, ntwr=500000, nstlim=25000000,
   dt=0.002, ntt=3, tempi=300,
   temp0=300, gamma_ln=1.0, ig=-1,
   ntp=1, ntc=2, ntf=2, cut=9,
   ntb=2, iwrap=1, ioutfm=1,
   nmropt=1,
 /
 &wt type='DUMPFREQ', istep1=10 /
 &wt type='END' /
 DISANG=disres.rst
 DUMPAVE=dist_md.txt

Note: ig = -1. Setting random seed to   196493 based on wallclock time in
      microseconds.

--------------------------------------------------------------------------------
   1.  RESOURCE   USE:
--------------------------------------------------------------------------------

 getting box info from netcdf restart file
 NATOM  =   28882 NTYPES =      27 NBONH =   27100 MBONA  =    1811
 NTHETH =    3878 MTHETA =    2479 NPHIH =    7966 MPHIA  =    7845
 NHPARM =       0 NPARM  =       0 NNB   =   53070 NRES   =    8709
 NBONA  =    1811 NTHETA =    2479 NPHIA =    7845 NUMBND =      79
 NUMANG =     171 NPTRA  =     198 NATYP =      47 NPHB   =       0
 IFBOX  =       1 NMXRS  =      24 IFCAP =       0 NEXTRA =       0
 NCOPY  =       0

     BOX TYPE: RECTILINEAR

--------------------------------------------------------------------------------
   2.  CONTROL  DATA  FOR  THE  RUN
--------------------------------------------------------------------------------

default_name

General flags:
     imin    =       0, nmropt  =       1

Nature and format of input:
     ntx     =       5, irest   =       1, ntrx    =       1

Nature and format of output:
     ntxo    =       2, ntpr    =  500000, ntrx    =       1, ntwr    =  500000
     iwrap   =       1, ntwx    =  500000, ntwv    =       0, ntwe    =       0
     ioutfm  =       1, ntwprt  =       0, idecomp =       0, rbornstat=      0

Potential function:
     ntf     =       2, ntb     =       2, igb     =       0, nsnb    =      25
     ipol    =       0, gbsa    =       0, iesp    =       0
     dielc   =   1.00000, cut     =   9.00000, intdiel =   1.00000

Frozen or restrained atoms:
     ibelly  =       0, ntr     =       0

Molecular dynamics:
     nstlim  =  25000000, nscm    =      1000, nrespa  =         1
     t       =   0.00000, dt      =   0.00200, vlimit  =  -1.00000

Langevin dynamics temperature regulation:
     ig      =  196493
     temp0   = 300.00000, tempi   = 300.00000, gamma_ln=   1.00000

Pressure regulation:
     ntp     =       1
     pres0   =   1.00000, comp    =  44.60000, taup    =   1.00000

SHAKE:
     ntc     =       2, jfastw  =       0
     tol     =   0.00001

NMR refinement options:
     iscale  =       0, noeskp  =       1, ipnlty  =       1, mxsub   =       1
     scalm   = 100.00000, pencut  =   0.10000, tausw   =   0.10000

Ewald parameters:
     verbose =       0, ew_type =       0, nbflag  =       1, use_pme =       1
     vdwmeth =       1, eedmeth =       1, netfrc  =       1
     Box X =   71.292   Box Y =   63.011   Box Z =   63.787
     Alpha =   90.000   Beta  =   90.000   Gamma =   90.000
     NFFT1 =   72       NFFT2 =   64       NFFT3 =   64
     Cutoff=    9.000   Tol   =0.100E-04
     Ewald Coefficient =  0.30768
     Interpolation order =    4

--------------------------------------------------------------------------------
   3.  ATOMIC COORDINATES AND VELOCITIES
--------------------------------------------------------------------------------

default_name
 begin time read from input coords =  4000.000 ps

           Begin reading energy term weight changes/NMR restraints
 WEIGHT CHANGES:
 DUMPFREQ     10      0    0.000000    0.000000      0      0
                         ** No weight changes given **

 RESTRAINTS:
 Requested file redirections:
  DISANG    = disres.rst
  DUMPAVE   = dist_md.txt
 Restraints will be read from file: disres.rst
Here are comments from the DISANG input file:

                       Number of restraints read =     8

                  Done reading weight changes/NMR restraints

 Number of triangulated 3-point waters found:     8462

     Sum of charges from parm topology file =  -0.00000012
     Forcing neutrality...

--------------------------------------------------------------------------------
   4.  RESULTS
 NSTEP =   500000   TIME(PS) =    5000.000  TEMP(K) =   299.88  PRESS =   278.2
 Etot   =    -70779.3393  EKtot   =     17742.5840  EPtot      =    -88521.9233
 BOND   =       673.6596  ANGLE   =      1886.3227  DIHED      =      2872.1082
 1-4 NB =       833.7077  1-4 EEL =      9118.0309  VDWAALS    =     10044.3848
 EELEC  =   -113957.4086  EHBOND  =         0.0000  RESTRAINT  =         7.2714
 EAMBER (non-restraint)  =    -88529.1948
 EKCMT  =      7580.9285  VIRIAL  =      5856.2539  VOLUME     =    287123.7030
                                                    Density    =         1.0285
 ------------------------------------------------------------------------------

      A V E R A G E S   O V E R      50 S T E P S

 NSTEP = 25000000   TIME(PS) =   54000.000  TEMP(K) =   300.32  PRESS =     4.1
 Etot   =    -70963.9900  EKtot   =     17768.2356  EPtot      =    -88732.2256
 BOND   =       682.8360  ANGLE   =      1892.6652  DIHED      =      2850.3913
 1-4 NB =       808.4060  1-4 EEL =      9006.2931  VDWAALS    =     10018.9986
 EELEC  =   -113999.9430  EHBOND  =         0.0000  RESTRAINT  =         8.1271
 EAMBER (non-restraint)  =    -88740.3528
 EKCMT  =      7625.9559  VIRIAL  =      7600.9291  VOLUME     =    287534.9629
                                                    Density    =         1.0271
 ------------------------------------------------------------------------------

      R M S  F L U C T U A T I O N S

 NSTEP = 25000000   TIME(PS) =   54000.000  TEMP(K) =     1.89  PRESS =   139.1
 Etot   =       161.7975  EKtot   =       111.9377  EPtot      =       120.6235
 BOND   =        22.3842  ANGLE   =        31.7538  DIHED      =        18.8377
 1-4 NB =        12.6156  1-4 EEL =        37.8119  VDWAALS    =       133.3021
 EELEC  =       209.7491  EHBOND  =         0.0000  RESTRAINT  =         2.1895
 EAMBER (non-restraint)  =       118.4340
 EKCMT  =        70.0493  VIRIAL  =       866.9476  VOLUME     =       439.3357
                                                    Density    =         0.0016
 ------------------------------------------------------------------------------
