-------------------------------------------------------
          Amber 22 PMEMD                              2022
          -------------------------------------------------------

  [-O]verwriting output

File Assignments:

 Here is the input file:

 Explicit solvent molecular dynamics constant pressure 50 ns MD
  &cntrl
   imin=0, irest=1, ntx=5,
   ntpr=500000, ntwx=500000, ntwr=500000, nstlim=25000000,
   dt=0.002, ntt=3, tempi=300,
   temp0=300, gamma_ln=1.0, ig=-1,
   ntp=1, ntc=2, ntf=2, cut=9,
   ntb=2, iwrap=1, ioutfm=1,
   nmropt=1,
 /
 &wt type='DUMPFREQ', istep1=10 /
 &wt type='END' /
 DISANG=disres.rst
 DUMPAVE=dist_md.txt

Note: ig = -1. Setting random seed to   995602 based on wallclock time in
      microseconds.

--------------------------------------------------------------------------------
   1.  RESOURCE   USE:
--------------------------------------------------------------------------------

 getting box info from netcdf restart file
 NATOM  =   28879 NTYPES =      27 NBONH =   27094 MBONA  =    1814
 NTHETH =    3872 MTHETA =    2485 NPHIH =    7956 MPHIA  =    7855
 NHPARM =       0 NPARM  =       0 NNB   =   53066 NRES   =    8708
 NBONA  =    1814 NTHETA =    2485 NPHIA =    7855 NUMBND =      85
 NUMANG =     179 NPTRA  =     202 NATYP =      50 NPHB   =       0
 IFBOX  =       1 NMXRS  =      24 IFCAP =       0 NEXTRA =       0
 NCOPY  =       0

     BOX TYPE: RECTILINEAR

--------------------------------------------------------------------------------
   2.  CONTROL  DATA  FOR  THE  RUN
--------------------------------------------------------------------------------

default_name

General flags:
     imin    =       0, nmropt  =       1

Nature and format of input:
     ntx     =       5, irest   =       1, ntrx    =       1

Nature and format of output:
     ntxo    =       2, ntpr    =  500000, ntrx    =       1, ntwr    =  500000
     iwrap   =       1, ntwx    =  500000, ntwv    =       0, ntwe    =       0
     ioutfm  =       1, ntwprt  =       0, idecomp =       0, rbornstat=      0

Potential function:
     ntf     =       2, ntb     =       2, igb     =       0, nsnb    =      25
     ipol    =       0, gbsa    =       0, iesp    =       0
     dielc   =   1.00000, cut     =   9.00000, intdiel =   1.00000

Frozen or restrained atoms:
     ibelly  =       0, ntr     =       0

Molecular dynamics:
     nstlim  =  25000000, nscm    =      1000, nrespa  =         1
     t       =   0.00000, dt      =   0.00200, vlimit  =  -1.00000

Langevin dynamics temperature regulation:
     ig      =  995602
     temp0   = 300.00000, tempi   = 300.00000, gamma_ln=   1.00000

Pressure regulation:
     ntp     =       1
     pres0   =   1.00000, comp    =  44.60000, taup    =   1.00000

SHAKE:
     ntc     =       2, jfastw  =       0
     tol     =   0.00001

NMR refinement options:
     iscale  =       0, noeskp  =       1, ipnlty  =       1, mxsub   =       1
     scalm   = 100.00000, pencut  =   0.10000, tausw   =   0.10000

Ewald parameters:
     verbose =       0, ew_type =       0, nbflag  =       1, use_pme =       1
     vdwmeth =       1, eedmeth =       1, netfrc  =       1
     Box X =   71.361   Box Y =   63.072   Box Z =   63.849
     Alpha =   90.000   Beta  =   90.000   Gamma =   90.000
     NFFT1 =   72       NFFT2 =   64       NFFT3 =   64
     Cutoff=    9.000   Tol   =0.100E-04
     Ewald Coefficient =  0.30768
     Interpolation order =    4

--------------------------------------------------------------------------------
   3.  ATOMIC COORDINATES AND VELOCITIES
--------------------------------------------------------------------------------

default_name
 begin time read from input coords =  4000.000 ps

           Begin reading energy term weight changes/NMR restraints
 WEIGHT CHANGES:
 DUMPFREQ     10      0    0.000000    0.000000      0      0
                         ** No weight changes given **

 RESTRAINTS:
 Requested file redirections:
  DISANG    = disres.rst
  DUMPAVE   = dist_md.txt
 Restraints will be read from file: disres.rst
Here are comments from the DISANG input file:

                       Number of restraints read =     8

                  Done reading weight changes/NMR restraints

 Number of triangulated 3-point waters found:     8461

     Sum of charges from parm topology file =  -0.00100012
     Forcing neutrality...

--------------------------------------------------------------------------------
   4.  RESULTS
 NSTEP =   500000   TIME(PS) =    5000.000  TEMP(K) =   302.14  PRESS =    94.9
 Etot   =    -70662.0958  EKtot   =     17875.3828  EPtot      =    -88537.4786
 BOND   =       662.7309  ANGLE   =      1956.7838  DIHED      =      2850.9744
 1-4 NB =       800.3460  1-4 EEL =      8860.1655  VDWAALS    =     10048.0485
 EELEC  =   -113722.5556  EHBOND  =         0.0000  RESTRAINT  =         6.0279
 EAMBER (non-restraint)  =    -88543.5065
 EKCMT  =      7660.1040  VIRIAL  =      7070.5952  VOLUME     =    287625.8699
                                                    Density    =         1.0269
 ------------------------------------------------------------------------------

      A V E R A G E S   O V E R      50 S T E P S

 NSTEP = 25000000   TIME(PS) =   54000.000  TEMP(K) =   300.55  PRESS =    19.0
 Etot   =    -71000.5011  EKtot   =     17781.1254  EPtot      =    -88781.6265
 BOND   =       687.9134  ANGLE   =      1899.8444  DIHED      =      2851.5876
 1-4 NB =       802.8683  1-4 EEL =      8826.8413  VDWAALS    =     10010.1641
 EELEC  =   -113869.8208  EHBOND  =         0.0000  RESTRAINT  =         8.9751
 EAMBER (non-restraint)  =    -88790.6016
 EKCMT  =      7635.2546  VIRIAL  =      7517.5522  VOLUME     =    287593.0380
                                                    Density    =         1.0270
 ------------------------------------------------------------------------------

      R M S  F L U C T U A T I O N S

 NSTEP = 25000000   TIME(PS) =   54000.000  TEMP(K) =     1.52  PRESS =   130.8
 Etot   =       170.1098  EKtot   =        90.2122  EPtot      =       137.9894
 BOND   =        21.9119  ANGLE   =        33.2070  DIHED      =        20.3939
 1-4 NB =        10.8200  1-4 EEL =        47.4494  VDWAALS    =       120.5610
 EELEC  =       204.6728  EHBOND  =         0.0000  RESTRAINT  =         2.2531
 EAMBER (non-restraint)  =       135.7363
 EKCMT  =        61.4419  VIRIAL  =       801.5288  VOLUME     =       417.8274
                                                    Density    =         0.0015
 ------------------------------------------------------------------------------
