-------------------------------------------------------
          Amber 22 PMEMD                              2022
          -------------------------------------------------------

  [-O]verwriting output

File Assignments:

 Here is the input file:

 Explicit solvent molecular dynamics constant pressure 50 ns MD
  &cntrl
   imin=0, irest=1, ntx=5,
   ntpr=500000, ntwx=500000, ntwr=500000, nstlim=25000000,
   dt=0.002, ntt=3, tempi=300,
   temp0=300, gamma_ln=1.0, ig=-1,
   ntp=1, ntc=2, ntf=2, cut=9,
   ntb=2, iwrap=1, ioutfm=1,
   nmropt=1,
 /
 &wt type='DUMPFREQ', istep1=10 /
 &wt type='END' /
 DISANG=disres.rst
 DUMPAVE=dist_md.txt

Note: ig = -1. Setting random seed to   590973 based on wallclock time in
      microseconds.

--------------------------------------------------------------------------------
   1.  RESOURCE   USE:
--------------------------------------------------------------------------------

 getting box info from netcdf restart file
 NATOM  =   28880 NTYPES =      27 NBONH =   27095 MBONA  =    1814
 NTHETH =    3874 MTHETA =    2485 NPHIH =    7962 MPHIA  =    7855
 NHPARM =       0 NPARM  =       0 NNB   =   53074 NRES   =    8708
 NBONA  =    1814 NTHETA =    2485 NPHIA =    7855 NUMBND =      86
 NUMANG =     181 NPTRA  =     200 NATYP =      51 NPHB   =       0
 IFBOX  =       1 NMXRS  =      25 IFCAP =       0 NEXTRA =       0
 NCOPY  =       0

     BOX TYPE: RECTILINEAR

--------------------------------------------------------------------------------
   2.  CONTROL  DATA  FOR  THE  RUN
--------------------------------------------------------------------------------

default_name

General flags:
     imin    =       0, nmropt  =       1

Nature and format of input:
     ntx     =       5, irest   =       1, ntrx    =       1

Nature and format of output:
     ntxo    =       2, ntpr    =  500000, ntrx    =       1, ntwr    =  500000
     iwrap   =       1, ntwx    =  500000, ntwv    =       0, ntwe    =       0
     ioutfm  =       1, ntwprt  =       0, idecomp =       0, rbornstat=      0

Potential function:
     ntf     =       2, ntb     =       2, igb     =       0, nsnb    =      25
     ipol    =       0, gbsa    =       0, iesp    =       0
     dielc   =   1.00000, cut     =   9.00000, intdiel =   1.00000

Frozen or restrained atoms:
     ibelly  =       0, ntr     =       0

Molecular dynamics:
     nstlim  =  25000000, nscm    =      1000, nrespa  =         1
     t       =   0.00000, dt      =   0.00200, vlimit  =  -1.00000

Langevin dynamics temperature regulation:
     ig      =  590973
     temp0   = 300.00000, tempi   = 300.00000, gamma_ln=   1.00000

Pressure regulation:
     ntp     =       1
     pres0   =   1.00000, comp    =  44.60000, taup    =   1.00000

SHAKE:
     ntc     =       2, jfastw  =       0
     tol     =   0.00001

NMR refinement options:
     iscale  =       0, noeskp  =       1, ipnlty  =       1, mxsub   =       1
     scalm   = 100.00000, pencut  =   0.10000, tausw   =   0.10000

Ewald parameters:
     verbose =       0, ew_type =       0, nbflag  =       1, use_pme =       1
     vdwmeth =       1, eedmeth =       1, netfrc  =       1
     Box X =   71.294   Box Y =   63.012   Box Z =   63.788
     Alpha =   90.000   Beta  =   90.000   Gamma =   90.000
     NFFT1 =   72       NFFT2 =   64       NFFT3 =   64
     Cutoff=    9.000   Tol   =0.100E-04
     Ewald Coefficient =  0.30768
     Interpolation order =    4

--------------------------------------------------------------------------------
   3.  ATOMIC COORDINATES AND VELOCITIES
--------------------------------------------------------------------------------

default_name
 begin time read from input coords =  4000.000 ps

           Begin reading energy term weight changes/NMR restraints
 WEIGHT CHANGES:
 DUMPFREQ     10      0    0.000000    0.000000      0      0
                         ** No weight changes given **

 RESTRAINTS:
 Requested file redirections:
  DISANG    = disres.rst
  DUMPAVE   = dist_md.txt
 Restraints will be read from file: disres.rst
Here are comments from the DISANG input file:

                       Number of restraints read =     8

                  Done reading weight changes/NMR restraints

 Number of triangulated 3-point waters found:     8461

     Sum of charges from parm topology file =  -0.00300012
     Forcing neutrality...

--------------------------------------------------------------------------------
   4.  RESULTS
 NSTEP =   500000   TIME(PS) =    5000.000  TEMP(K) =   301.83  PRESS =  -227.7
 Etot   =    -70770.2406  EKtot   =     17857.3379  EPtot      =    -88627.5785
 BOND   =       708.2634  ANGLE   =      1868.8018  DIHED      =      2877.5112
 1-4 NB =       776.2838  1-4 EEL =      8869.2385  VDWAALS    =      9897.2527
 EELEC  =   -113637.8379  EHBOND  =         0.0000  RESTRAINT  =        12.9079
 EAMBER (non-restraint)  =    -88640.4864
 EKCMT  =      7634.9528  VIRIAL  =      9051.8986  VOLUME     =    288177.0006
                                                    Density    =         1.0257
 ------------------------------------------------------------------------------

      A V E R A G E S   O V E R      50 S T E P S

 NSTEP = 25000000   TIME(PS) =   54000.000  TEMP(K) =   300.15  PRESS =   -17.4
 Etot   =    -70863.7648  EKtot   =     17757.9511  EPtot      =    -88621.7159
 BOND   =       682.6126  ANGLE   =      1878.8866  DIHED      =      2854.7898
 1-4 NB =       803.2946  1-4 EEL =      8900.2311  VDWAALS    =     10021.1308
 EELEC  =   -113776.1316  EHBOND  =         0.0000  RESTRAINT  =        13.4702
 EAMBER (non-restraint)  =    -88635.1861
 EKCMT  =      7617.2331  VIRIAL  =      7725.5687  VOLUME     =    287945.9082
                                                    Density    =         1.0265
 ------------------------------------------------------------------------------

      R M S  F L U C T U A T I O N S

 NSTEP = 25000000   TIME(PS) =   54000.000  TEMP(K) =     1.93  PRESS =   116.6
 Etot   =       169.1176  EKtot   =       114.0249  EPtot      =       116.5031
 BOND   =        21.1795  ANGLE   =        29.0085  DIHED      =        21.2936
 1-4 NB =        11.7729  1-4 EEL =        48.8578  VDWAALS    =       111.0212
 EELEC  =       182.0420  EHBOND  =         0.0000  RESTRAINT  =         2.0418
 EAMBER (non-restraint)  =       114.4613
 EKCMT  =        73.1026  VIRIAL  =       741.8052  VOLUME     =       439.7202
                                                    Density    =         0.0016
 ------------------------------------------------------------------------------
