-------------------------------------------------------
          Amber 22 PMEMD                              2022
          -------------------------------------------------------

  [-O]verwriting output

File Assignments:

 Here is the input file:

 Explicit solvent molecular dynamics constant pressure 50 ns MD
  &cntrl
   imin=0, irest=1, ntx=5,
   ntpr=500000, ntwx=500000, ntwr=500000, nstlim=25000000,
   dt=0.002, ntt=3, tempi=300,
   temp0=300, gamma_ln=1.0, ig=-1,
   ntp=1, ntc=2, ntf=2, cut=9,
   ntb=2, iwrap=1, ioutfm=1,
   nmropt=1,
 /
 &wt type='DUMPFREQ', istep1=10 /
 &wt type='END' /
 DISANG=disres.rst
 DUMPAVE=dist_md.txt

Note: ig = -1. Setting random seed to   738944 based on wallclock time in
      microseconds.

--------------------------------------------------------------------------------
   1.  RESOURCE   USE:
--------------------------------------------------------------------------------

 getting box info from netcdf restart file
 NATOM  =   28883 NTYPES =      27 NBONH =   27098 MBONA  =    1814
 NTHETH =    3880 MTHETA =    2484 NPHIH =    7963 MPHIA  =    7853
 NHPARM =       0 NPARM  =       0 NNB   =   53083 NRES   =    8708
 NBONA  =    1814 NTHETA =    2484 NPHIA =    7853 NUMBND =      86
 NUMANG =     181 NPTRA  =     204 NATYP =      50 NPHB   =       0
 IFBOX  =       1 NMXRS  =      28 IFCAP =       0 NEXTRA =       0
 NCOPY  =       0

     BOX TYPE: RECTILINEAR

--------------------------------------------------------------------------------
   2.  CONTROL  DATA  FOR  THE  RUN
--------------------------------------------------------------------------------

default_name

General flags:
     imin    =       0, nmropt  =       1

Nature and format of input:
     ntx     =       5, irest   =       1, ntrx    =       1

Nature and format of output:
     ntxo    =       2, ntpr    =  500000, ntrx    =       1, ntwr    =  500000
     iwrap   =       1, ntwx    =  500000, ntwv    =       0, ntwe    =       0
     ioutfm  =       1, ntwprt  =       0, idecomp =       0, rbornstat=      0

Potential function:
     ntf     =       2, ntb     =       2, igb     =       0, nsnb    =      25
     ipol    =       0, gbsa    =       0, iesp    =       0
     dielc   =   1.00000, cut     =   9.00000, intdiel =   1.00000

Frozen or restrained atoms:
     ibelly  =       0, ntr     =       0

Molecular dynamics:
     nstlim  =  25000000, nscm    =      1000, nrespa  =         1
     t       =   0.00000, dt      =   0.00200, vlimit  =  -1.00000

Langevin dynamics temperature regulation:
     ig      =  738944
     temp0   = 300.00000, tempi   = 300.00000, gamma_ln=   1.00000

Pressure regulation:
     ntp     =       1
     pres0   =   1.00000, comp    =  44.60000, taup    =   1.00000

SHAKE:
     ntc     =       2, jfastw  =       0
     tol     =   0.00001

NMR refinement options:
     iscale  =       0, noeskp  =       1, ipnlty  =       1, mxsub   =       1
     scalm   = 100.00000, pencut  =   0.10000, tausw   =   0.10000

Ewald parameters:
     verbose =       0, ew_type =       0, nbflag  =       1, use_pme =       1
     vdwmeth =       1, eedmeth =       1, netfrc  =       1
     Box X =   71.520   Box Y =   63.212   Box Z =   63.991
     Alpha =   90.000   Beta  =   90.000   Gamma =   90.000
     NFFT1 =   72       NFFT2 =   64       NFFT3 =   64
     Cutoff=    9.000   Tol   =0.100E-04
     Ewald Coefficient =  0.30768
     Interpolation order =    4

--------------------------------------------------------------------------------
   3.  ATOMIC COORDINATES AND VELOCITIES
--------------------------------------------------------------------------------

default_name
 begin time read from input coords =  4000.000 ps

           Begin reading energy term weight changes/NMR restraints
 WEIGHT CHANGES:
 DUMPFREQ     10      0    0.000000    0.000000      0      0
                         ** No weight changes given **

 RESTRAINTS:
 Requested file redirections:
  DISANG    = disres.rst
  DUMPAVE   = dist_md.txt
 Restraints will be read from file: disres.rst
Here are comments from the DISANG input file:

                       Number of restraints read =     8

                  Done reading weight changes/NMR restraints

 Number of triangulated 3-point waters found:     8461

     Sum of charges from parm topology file =  -0.00300012
     Forcing neutrality...

--------------------------------------------------------------------------------
   4.  RESULTS
 NSTEP =   500000   TIME(PS) =    5000.000  TEMP(K) =   302.27  PRESS =   -94.0
 Etot   =    -70798.0455  EKtot   =     17885.4824  EPtot      =    -88683.5279
 BOND   =       717.0047  ANGLE   =      1885.3636  DIHED      =      2842.2203
 1-4 NB =       793.8403  1-4 EEL =      8917.7033  VDWAALS    =     10065.4275
 EELEC  =   -113912.2526  EHBOND  =         0.0000  RESTRAINT  =         7.1649
 EAMBER (non-restraint)  =    -88690.6928
 EKCMT  =      7584.8345  VIRIAL  =      8168.7039  VOLUME     =    287808.5072
                                                    Density    =         1.0262
 ------------------------------------------------------------------------------

      A V E R A G E S   O V E R      50 S T E P S

 NSTEP = 25000000   TIME(PS) =   54000.000  TEMP(K) =   300.05  PRESS =    11.6
 Etot   =    -71022.9453  EKtot   =     17753.9289  EPtot      =    -88776.8743
 BOND   =       685.2856  ANGLE   =      1885.7839  DIHED      =      2854.3601
 1-4 NB =       810.8476  1-4 EEL =      8879.8320  VDWAALS    =     10032.9377
 EELEC  =   -113934.7922  EHBOND  =         0.0000  RESTRAINT  =         8.8712
 EAMBER (non-restraint)  =    -88785.7454
 EKCMT  =      7596.3826  VIRIAL  =      7524.3964  VOLUME     =    287627.2461
                                                    Density    =         1.0269
 ------------------------------------------------------------------------------

      R M S  F L U C T U A T I O N S

 NSTEP = 25000000   TIME(PS) =   54000.000  TEMP(K) =     1.74  PRESS =   124.4
 Etot   =       167.4672  EKtot   =       102.8388  EPtot      =       130.7519
 BOND   =        19.5960  ANGLE   =        29.1485  DIHED      =        19.6340
 1-4 NB =        13.7583  1-4 EEL =        43.5745  VDWAALS    =       116.6512
 EELEC  =       158.5451  EHBOND  =         0.0000  RESTRAINT  =         2.0330
 EAMBER (non-restraint)  =       128.7189
 EKCMT  =        61.8213  VIRIAL  =       778.4590  VOLUME     =       396.8014
                                                    Density    =         0.0014
 ------------------------------------------------------------------------------
