-------------------------------------------------------
          Amber 22 PMEMD                              2022
          -------------------------------------------------------

  [-O]verwriting output

File Assignments:

 Here is the input file:

 Explicit solvent molecular dynamics constant pressure 50 ns MD
  &cntrl
   imin=0, irest=1, ntx=5,
   ntpr=500000, ntwx=500000, ntwr=500000, nstlim=25000000,
   dt=0.002, ntt=3, tempi=300,
   temp0=300, gamma_ln=1.0, ig=-1,
   ntp=1, ntc=2, ntf=2, cut=9,
   ntb=2, iwrap=1, ioutfm=1,
   nmropt=1,
 /
 &wt type='DUMPFREQ', istep1=10 /
 &wt type='END' /
 DISANG=disres.rst
 DUMPAVE=dist_md.txt

Note: ig = -1. Setting random seed to   991558 based on wallclock time in
      microseconds.

--------------------------------------------------------------------------------
   1.  RESOURCE   USE:
--------------------------------------------------------------------------------

 getting box info from netcdf restart file
 NATOM  =   28886 NTYPES =      26 NBONH =   27101 MBONA  =    1814
 NTHETH =    3886 MTHETA =    2485 NPHIH =    7974 MPHIA  =    7855
 NHPARM =       0 NPARM  =       0 NNB   =   53106 NRES   =    8708
 NBONA  =    1814 NTHETA =    2485 NPHIA =    7855 NUMBND =      86
 NUMANG =     182 NPTRA  =     201 NATYP =      50 NPHB   =       0
 IFBOX  =       1 NMXRS  =      31 IFCAP =       0 NEXTRA =       0
 NCOPY  =       0

     BOX TYPE: RECTILINEAR

--------------------------------------------------------------------------------
   2.  CONTROL  DATA  FOR  THE  RUN
--------------------------------------------------------------------------------

default_name

General flags:
     imin    =       0, nmropt  =       1

Nature and format of input:
     ntx     =       5, irest   =       1, ntrx    =       1

Nature and format of output:
     ntxo    =       2, ntpr    =  500000, ntrx    =       1, ntwr    =  500000
     iwrap   =       1, ntwx    =  500000, ntwv    =       0, ntwe    =       0
     ioutfm  =       1, ntwprt  =       0, idecomp =       0, rbornstat=      0

Potential function:
     ntf     =       2, ntb     =       2, igb     =       0, nsnb    =      25
     ipol    =       0, gbsa    =       0, iesp    =       0
     dielc   =   1.00000, cut     =   9.00000, intdiel =   1.00000

Frozen or restrained atoms:
     ibelly  =       0, ntr     =       0

Molecular dynamics:
     nstlim  =  25000000, nscm    =      1000, nrespa  =         1
     t       =   0.00000, dt      =   0.00200, vlimit  =  -1.00000

Langevin dynamics temperature regulation:
     ig      =  991558
     temp0   = 300.00000, tempi   = 300.00000, gamma_ln=   1.00000

Pressure regulation:
     ntp     =       1
     pres0   =   1.00000, comp    =  44.60000, taup    =   1.00000

SHAKE:
     ntc     =       2, jfastw  =       0
     tol     =   0.00001

NMR refinement options:
     iscale  =       0, noeskp  =       1, ipnlty  =       1, mxsub   =       1
     scalm   = 100.00000, pencut  =   0.10000, tausw   =   0.10000

Ewald parameters:
     verbose =       0, ew_type =       0, nbflag  =       1, use_pme =       1
     vdwmeth =       1, eedmeth =       1, netfrc  =       1
     Box X =   71.347   Box Y =   63.059   Box Z =   63.836
     Alpha =   90.000   Beta  =   90.000   Gamma =   90.000
     NFFT1 =   72       NFFT2 =   64       NFFT3 =   64
     Cutoff=    9.000   Tol   =0.100E-04
     Ewald Coefficient =  0.30768
     Interpolation order =    4

--------------------------------------------------------------------------------
   3.  ATOMIC COORDINATES AND VELOCITIES
--------------------------------------------------------------------------------

default_name
 begin time read from input coords =  4000.000 ps

           Begin reading energy term weight changes/NMR restraints
 WEIGHT CHANGES:
 DUMPFREQ     10      0    0.000000    0.000000      0      0
                         ** No weight changes given **

 RESTRAINTS:
 Requested file redirections:
  DISANG    = disres.rst
  DUMPAVE   = dist_md.txt
 Restraints will be read from file: disres.rst
Here are comments from the DISANG input file:

                       Number of restraints read =     8

                  Done reading weight changes/NMR restraints

 Number of triangulated 3-point waters found:     8461

     Sum of charges from parm topology file =   0.00000189
     Forcing neutrality...

--------------------------------------------------------------------------------
   4.  RESULTS
 NSTEP =   500000   TIME(PS) =    5000.000  TEMP(K) =   302.37  PRESS =   -58.6
 Etot   =    -70701.3005  EKtot   =     17893.0977  EPtot      =    -88594.3982
 BOND   =       716.9913  ANGLE   =      1870.4365  DIHED      =      2892.7287
 1-4 NB =       802.3766  1-4 EEL =      8953.9465  VDWAALS    =     10057.0738
 EELEC  =   -113894.7025  EHBOND  =         0.0000  RESTRAINT  =         6.7511
 EAMBER (non-restraint)  =    -88601.1492
 EKCMT  =      7653.0345  VIRIAL  =      8016.9450  VOLUME     =    287747.6148
                                                    Density    =         1.0264
 ------------------------------------------------------------------------------

      A V E R A G E S   O V E R      50 S T E P S

 NSTEP = 25000000   TIME(PS) =   54000.000  TEMP(K) =   300.05  PRESS =   -26.6
 Etot   =    -71033.4945  EKtot   =     17755.4797  EPtot      =    -88788.9741
 BOND   =       684.2431  ANGLE   =      1894.1214  DIHED      =      2851.0919
 1-4 NB =       807.8708  1-4 EEL =      8875.7827  VDWAALS    =     10001.6017
 EELEC  =   -113912.4962  EHBOND  =         0.0000  RESTRAINT  =         8.8104
 EAMBER (non-restraint)  =    -88797.7846
 EKCMT  =      7607.3087  VIRIAL  =      7772.3041  VOLUME     =    287575.3386
                                                    Density    =         1.0271
 ------------------------------------------------------------------------------

      R M S  F L U C T U A T I O N S

 NSTEP = 25000000   TIME(PS) =   54000.000  TEMP(K) =     1.72  PRESS =   132.0
 Etot   =       171.3060  EKtot   =       101.5181  EPtot      =       131.8260
 BOND   =        19.5508  ANGLE   =        35.3214  DIHED      =        22.5461
 1-4 NB =        11.3427  1-4 EEL =        51.3135  VDWAALS    =       143.3184
 EELEC  =       217.9488  EHBOND  =         0.0000  RESTRAINT  =         2.1030
 EAMBER (non-restraint)  =       129.7230
 EKCMT  =        63.1311  VIRIAL  =       827.7628  VOLUME     =       444.3067
                                                    Density    =         0.0016
 ------------------------------------------------------------------------------
