-------------------------------------------------------
          Amber 22 PMEMD                              2022
          -------------------------------------------------------

  [-O]verwriting output

File Assignments:

 Here is the input file:

 &cntrl
  imin = 0, nstlim = 1000000, dt = 0.001,
  irest = 1, ntx = 5, ig = -1,
  temp0 = 300.0,
  ntc = 2, ntf = 2, tol = 0.00001,
  ntwx = 10000, ntwe = 0, ntwr = 1000, ntpr = 1000,
  cut = 8.0, iwrap = 0,
  ntt =3, gamma_ln=1.0, ntb = 2, ntp = 1, barostat = 2,
  nscm = 0,
  ntr=1, restraintmask=':1-233', restraint_wt=100.
  ioutfm=1, ntxo=2,
 /

Note: ig = -1. Setting random seed to   370832 based on wallclock time in
      microseconds.

--------------------------------------------------------------------------------
   1.  RESOURCE   USE:
--------------------------------------------------------------------------------

 getting box info from netcdf restart file
 NATOM  =   25627 NTYPES =      27 NBONH =   23864 MBONA  =    1801
 NTHETH =    3827 MTHETA =    2482 NPHIH =    7861 MPHIA  =    7830
 NHPARM =       0 NPARM  =       0 NNB   =   48654 NRES   =    7635
 NBONA  =    1801 NTHETA =    2482 NPHIA =    7830 NUMBND =     101
 NUMANG =     226 NPTRA  =     197 NATYP =      57 NPHB   =       0
 IFBOX  =       1 NMXRS  =      24 IFCAP =       0 NEXTRA =       0
 NCOPY  =       0

     BOX TYPE: RECTILINEAR

--------------------------------------------------------------------------------
   2.  CONTROL  DATA  FOR  THE  RUN
--------------------------------------------------------------------------------

default_name

General flags:
     imin    =       0, nmropt  =       0

Nature and format of input:
     ntx     =       5, irest   =       1, ntrx    =       1

Nature and format of output:
     ntxo    =       2, ntpr    =    1000, ntrx    =       1, ntwr    =    1000
     iwrap   =       0, ntwx    =   10000, ntwv    =       0, ntwe    =       0
     ioutfm  =       1, ntwprt  =       0, idecomp =       0, rbornstat=      0

Potential function:
     ntf     =       2, ntb     =       2, igb     =       0, nsnb    =      25
     ipol    =       0, gbsa    =       0, iesp    =       0
     dielc   =   1.00000, cut     =   8.00000, intdiel =   1.00000

Frozen or restrained atoms:
     ibelly  =       0, ntr     =       1
     restraint_wt = 100.00000

Molecular dynamics:
     nstlim  =   1000000, nscm    =         0, nrespa  =         1
     t       =   0.00000, dt      =   0.00100, vlimit  =  -1.00000

Langevin dynamics temperature regulation:
     ig      =  370832
     temp0   = 300.00000, tempi   =   0.00000, gamma_ln=   1.00000

Pressure regulation:
     ntp     =       1
     pres0   =   1.00000, comp    =  44.60000, taup    =   1.00000
     Monte-Carlo Barostat:
     mcbarint  =     100

SHAKE:
     ntc     =       2, jfastw  =       0
     tol     =   0.00001

Ewald parameters:
     verbose =       0, ew_type =       0, nbflag  =       1, use_pme =       1
     vdwmeth =       1, eedmeth =       1, netfrc  =       1
     Box X =   70.504   Box Y =   66.696   Box Z =   68.898
     Alpha =   90.000   Beta  =   90.000   Gamma =   90.000
     NFFT1 =   72       NFFT2 =   64       NFFT3 =   72
     Cutoff=    8.000   Tol   =0.100E-04
     Ewald Coefficient =  0.34864
     Interpolation order =    4

    LOADING THE CONSTRAINED ATOMS AS GROUPS

   5.  REFERENCE ATOM COORDINATES

  default_name
     Mask :1-233; matches  3441 atoms

--------------------------------------------------------------------------------
   3.  ATOMIC COORDINATES AND VELOCITIES
--------------------------------------------------------------------------------

default_name
 begin time read from input coords =  1000.000 ps

 Number of triangulated 3-point waters found:     7392

     Sum of charges from parm topology file =   0.00000087
     Forcing neutrality...

--------------------------------------------------------------------------------
   4.  RESULTS
 NSTEP =     1000   TIME(PS) =    1001.000  TEMP(K) =   294.22  PRESS =     0.0
 Etot   =    -59737.2611  EKtot   =     15499.0010  EPtot      =    -75236.2621
 BOND   =       454.6096  ANGLE   =      1173.2192  DIHED      =      2655.4518
 1-4 NB =       903.4452  1-4 EEL =      8964.7338  VDWAALS    =      8219.0938
 EELEC  =    -99097.0377  EHBOND  =         0.0000  RESTRAINT  =      1490.2221
 EAMBER (non-restraint)  =    -76726.4842
 EKCMT  =         0.0000  VIRIAL  =         0.0000  VOLUME     =    323806.9319
                                                    Density    =         0.8118
 ------------------------------------------------------------------------------

      A V E R A G E S   O V E R    1000 S T E P S

 NSTEP =  1000000   TIME(PS) =    2000.000  TEMP(K) =   300.46  PRESS =     0.0
 Etot   =    -60857.2047  EKtot   =     15827.2838  EPtot      =    -76684.4885
 BOND   =       492.5832  ANGLE   =      1224.4296  DIHED      =      2678.2864
 1-4 NB =       899.6934  1-4 EEL =      8955.0126  VDWAALS    =      8446.5163
 EELEC  =   -101011.4952  EHBOND  =         0.0000  RESTRAINT  =      1630.4851
 EAMBER (non-restraint)  =    -78314.9736
 EKCMT  =         0.0000  VIRIAL  =         0.0000  VOLUME     =    255077.7521
                                                    Density    =         1.0313
 ------------------------------------------------------------------------------

      R M S  F L U C T U A T I O N S

 NSTEP =  1000000   TIME(PS) =    2000.000  TEMP(K) =     1.89  PRESS =     0.0
 Etot   =       274.9195  EKtot   =        99.5283  EPtot      =       252.3600
 BOND   =        16.2487  ANGLE   =        18.6784  DIHED      =         8.1717
 1-4 NB =         6.1327  1-4 EEL =        16.3599  VDWAALS    =       139.7646
 EELEC  =       314.2294  EHBOND  =         0.0000  RESTRAINT  =        28.1593
 EAMBER (non-restraint)  =       224.2007
 EKCMT  =         0.0000  VIRIAL  =         0.0000  VOLUME     =      7481.5898
                                                    Density    =         0.0255
 ------------------------------------------------------------------------------
