-------------------------------------------------------
          Amber 22 PMEMD                              2022
          -------------------------------------------------------

  [-O]verwriting output

File Assignments:

 Here is the input file:

 Explicit solvent molecular dynamics constant pressure 50 ns MD
  &cntrl
   imin=0, irest=1, ntx=5,
   ntpr=500000, ntwx=500000, ntwr=500000, nstlim=25000000,
   dt=0.002, ntt=3, tempi=300,
   temp0=300, gamma_ln=1.0, ig=-1,
   ntp=1, ntc=2, ntf=2, cut=9,
   ntb=2, iwrap=1, ioutfm=1,
   nmropt=1,
 /
 &wt type='DUMPFREQ', istep1=10 /
 &wt type='END' /
 DISANG=disres.rst
 DUMPAVE=dist_md.txt

Note: ig = -1. Setting random seed to   296161 based on wallclock time in
      microseconds.

--------------------------------------------------------------------------------
   1.  RESOURCE   USE:
--------------------------------------------------------------------------------

 getting box info from netcdf restart file
 NATOM  =   28879 NTYPES =      27 NBONH =   27097 MBONA  =    1811
 NTHETH =    3878 MTHETA =    2479 NPHIH =    7966 MPHIA  =    7845
 NHPARM =       0 NPARM  =       0 NNB   =   53065 NRES   =    8708
 NBONA  =    1811 NTHETA =    2479 NPHIA =    7845 NUMBND =      79
 NUMANG =     171 NPTRA  =     198 NATYP =      47 NPHB   =       0
 IFBOX  =       1 NMXRS  =      24 IFCAP =       0 NEXTRA =       0
 NCOPY  =       0

     BOX TYPE: RECTILINEAR

--------------------------------------------------------------------------------
   2.  CONTROL  DATA  FOR  THE  RUN
--------------------------------------------------------------------------------

default_name

General flags:
     imin    =       0, nmropt  =       1

Nature and format of input:
     ntx     =       5, irest   =       1, ntrx    =       1

Nature and format of output:
     ntxo    =       2, ntpr    =  500000, ntrx    =       1, ntwr    =  500000
     iwrap   =       1, ntwx    =  500000, ntwv    =       0, ntwe    =       0
     ioutfm  =       1, ntwprt  =       0, idecomp =       0, rbornstat=      0

Potential function:
     ntf     =       2, ntb     =       2, igb     =       0, nsnb    =      25
     ipol    =       0, gbsa    =       0, iesp    =       0
     dielc   =   1.00000, cut     =   9.00000, intdiel =   1.00000

Frozen or restrained atoms:
     ibelly  =       0, ntr     =       0

Molecular dynamics:
     nstlim  =  25000000, nscm    =      1000, nrespa  =         1
     t       =   0.00000, dt      =   0.00200, vlimit  =  -1.00000

Langevin dynamics temperature regulation:
     ig      =  296161
     temp0   = 300.00000, tempi   = 300.00000, gamma_ln=   1.00000

Pressure regulation:
     ntp     =       1
     pres0   =   1.00000, comp    =  44.60000, taup    =   1.00000

SHAKE:
     ntc     =       2, jfastw  =       0
     tol     =   0.00001

NMR refinement options:
     iscale  =       0, noeskp  =       1, ipnlty  =       1, mxsub   =       1
     scalm   = 100.00000, pencut  =   0.10000, tausw   =   0.10000

Ewald parameters:
     verbose =       0, ew_type =       0, nbflag  =       1, use_pme =       1
     vdwmeth =       1, eedmeth =       1, netfrc  =       1
     Box X =   71.385   Box Y =   63.093   Box Z =   63.870
     Alpha =   90.000   Beta  =   90.000   Gamma =   90.000
     NFFT1 =   72       NFFT2 =   64       NFFT3 =   64
     Cutoff=    9.000   Tol   =0.100E-04
     Ewald Coefficient =  0.30768
     Interpolation order =    4

--------------------------------------------------------------------------------
   3.  ATOMIC COORDINATES AND VELOCITIES
--------------------------------------------------------------------------------

default_name
 begin time read from input coords =  4000.000 ps

           Begin reading energy term weight changes/NMR restraints
 WEIGHT CHANGES:
 DUMPFREQ     10      0    0.000000    0.000000      0      0
                         ** No weight changes given **

 RESTRAINTS:
 Requested file redirections:
  DISANG    = disres.rst
  DUMPAVE   = dist_md.txt
 Restraints will be read from file: disres.rst
Here are comments from the DISANG input file:

                       Number of restraints read =     8

                  Done reading weight changes/NMR restraints

 Number of triangulated 3-point waters found:     8461

     Sum of charges from parm topology file =  -0.00200012
     Forcing neutrality...

--------------------------------------------------------------------------------
   4.  RESULTS
 NSTEP =   500000   TIME(PS) =    5000.000  TEMP(K) =   298.17  PRESS =    74.2
 Etot   =    -70988.6287  EKtot   =     17639.0684  EPtot      =    -88627.6971
 BOND   =       725.7612  ANGLE   =      1858.3526  DIHED      =      2867.3141
 1-4 NB =       790.0078  1-4 EEL =      9092.2747  VDWAALS    =     10092.3351
 EELEC  =   -114060.0842  EHBOND  =         0.0000  RESTRAINT  =         6.3416
 EAMBER (non-restraint)  =    -88634.0387
 EKCMT  =      7573.1630  VIRIAL  =      7112.3162  VOLUME     =    287785.9593
                                                    Density    =         1.0261
 ------------------------------------------------------------------------------

      A V E R A G E S   O V E R      50 S T E P S

 NSTEP = 25000000   TIME(PS) =   54000.000  TEMP(K) =   300.03  PRESS =    23.2
 Etot   =    -70926.2723  EKtot   =     17749.5054  EPtot      =    -88675.7777
 BOND   =       683.5026  ANGLE   =      1888.5986  DIHED      =      2854.9029
 1-4 NB =       808.4997  1-4 EEL =      9167.6080  VDWAALS    =     10017.5081
 EELEC  =   -114105.0731  EHBOND  =         0.0000  RESTRAINT  =         8.6754
 EAMBER (non-restraint)  =    -88684.4532
 EKCMT  =      7605.8791  VIRIAL  =      7461.5015  VOLUME     =    287428.6377
                                                    Density    =         1.0273
 ------------------------------------------------------------------------------

      R M S  F L U C T U A T I O N S

 NSTEP = 25000000   TIME(PS) =   54000.000  TEMP(K) =     1.56  PRESS =   135.7
 Etot   =       176.6226  EKtot   =        92.3702  EPtot      =       130.9916
 BOND   =        21.0610  ANGLE   =        36.9041  DIHED      =        18.0552
 1-4 NB =        12.5811  1-4 EEL =        47.0858  VDWAALS    =       121.4877
 EELEC  =       212.2262  EHBOND  =         0.0000  RESTRAINT  =         2.6056
 EAMBER (non-restraint)  =       128.3860
 EKCMT  =        59.7932  VIRIAL  =       847.6634  VOLUME     =       470.5867
                                                    Density    =         0.0017
 ------------------------------------------------------------------------------
