-------------------------------------------------------
          Amber 22 PMEMD                              2022
          -------------------------------------------------------

  [-O]verwriting output

File Assignments:

 Here is the input file:

 Explicit solvent molecular dynamics constant pressure 50 ns MD
  &cntrl
   imin=0, irest=1, ntx=5,
   ntpr=500000, ntwx=500000, ntwr=500000, nstlim=25000000,
   dt=0.002, ntt=3, tempi=300,
   temp0=300, gamma_ln=1.0, ig=-1,
   ntp=1, ntc=2, ntf=2, cut=9,
   ntb=2, iwrap=1, ioutfm=1,
   nmropt=1,
 /
 &wt type='DUMPFREQ', istep1=10 /
 &wt type='END' /
 DISANG=disres.rst
 DUMPAVE=dist_md.txt

Note: ig = -1. Setting random seed to   618320 based on wallclock time in
      microseconds.

--------------------------------------------------------------------------------
   1.  RESOURCE   USE:
--------------------------------------------------------------------------------

 getting box info from netcdf restart file
 NATOM  =   28882 NTYPES =      27 NBONH =   27096 MBONA  =    1816
 NTHETH =    3877 MTHETA =    2488 NPHIH =    7960 MPHIA  =    7861
 NHPARM =       0 NPARM  =       0 NNB   =   53083 NRES   =    8708
 NBONA  =    1816 NTHETA =    2488 NPHIA =    7861 NUMBND =      86
 NUMANG =     182 NPTRA  =     204 NATYP =      50 NPHB   =       0
 IFBOX  =       1 NMXRS  =      27 IFCAP =       0 NEXTRA =       0
 NCOPY  =       0

     BOX TYPE: RECTILINEAR

--------------------------------------------------------------------------------
   2.  CONTROL  DATA  FOR  THE  RUN
--------------------------------------------------------------------------------

default_name

General flags:
     imin    =       0, nmropt  =       1

Nature and format of input:
     ntx     =       5, irest   =       1, ntrx    =       1

Nature and format of output:
     ntxo    =       2, ntpr    =  500000, ntrx    =       1, ntwr    =  500000
     iwrap   =       1, ntwx    =  500000, ntwv    =       0, ntwe    =       0
     ioutfm  =       1, ntwprt  =       0, idecomp =       0, rbornstat=      0

Potential function:
     ntf     =       2, ntb     =       2, igb     =       0, nsnb    =      25
     ipol    =       0, gbsa    =       0, iesp    =       0
     dielc   =   1.00000, cut     =   9.00000, intdiel =   1.00000

Frozen or restrained atoms:
     ibelly  =       0, ntr     =       0

Molecular dynamics:
     nstlim  =  25000000, nscm    =      1000, nrespa  =         1
     t       =   0.00000, dt      =   0.00200, vlimit  =  -1.00000

Langevin dynamics temperature regulation:
     ig      =  618320
     temp0   = 300.00000, tempi   = 300.00000, gamma_ln=   1.00000

Pressure regulation:
     ntp     =       1
     pres0   =   1.00000, comp    =  44.60000, taup    =   1.00000

SHAKE:
     ntc     =       2, jfastw  =       0
     tol     =   0.00001

NMR refinement options:
     iscale  =       0, noeskp  =       1, ipnlty  =       1, mxsub   =       1
     scalm   = 100.00000, pencut  =   0.10000, tausw   =   0.10000

Ewald parameters:
     verbose =       0, ew_type =       0, nbflag  =       1, use_pme =       1
     vdwmeth =       1, eedmeth =       1, netfrc  =       1
     Box X =   71.336   Box Y =   63.050   Box Z =   63.826
     Alpha =   90.000   Beta  =   90.000   Gamma =   90.000
     NFFT1 =   72       NFFT2 =   64       NFFT3 =   64
     Cutoff=    9.000   Tol   =0.100E-04
     Ewald Coefficient =  0.30768
     Interpolation order =    4

--------------------------------------------------------------------------------
   3.  ATOMIC COORDINATES AND VELOCITIES
--------------------------------------------------------------------------------

default_name
 begin time read from input coords =  4000.000 ps

           Begin reading energy term weight changes/NMR restraints
 WEIGHT CHANGES:
 DUMPFREQ     10      0    0.000000    0.000000      0      0
                         ** No weight changes given **

 RESTRAINTS:
 Requested file redirections:
  DISANG    = disres.rst
  DUMPAVE   = dist_md.txt
 Restraints will be read from file: disres.rst
Here are comments from the DISANG input file:

                       Number of restraints read =     8

                  Done reading weight changes/NMR restraints

 Number of triangulated 3-point waters found:     8461

     Sum of charges from parm topology file =   0.00099988
     Forcing neutrality...

--------------------------------------------------------------------------------
   4.  RESULTS
 NSTEP =   500000   TIME(PS) =    5000.000  TEMP(K) =   298.42  PRESS =    28.2
 Etot   =    -71164.0230  EKtot   =     17657.3535  EPtot      =    -88821.3766
 BOND   =       677.3470  ANGLE   =      1905.1497  DIHED      =      2865.6790
 1-4 NB =       794.1118  1-4 EEL =      8901.6272  VDWAALS    =     10016.4290
 EELEC  =   -113992.2847  EHBOND  =         0.0000  RESTRAINT  =        10.5644
 EAMBER (non-restraint)  =    -88831.9410
 EKCMT  =      7562.9866  VIRIAL  =      7388.0433  VOLUME     =    287432.3563
                                                    Density    =         1.0277
 ------------------------------------------------------------------------------

      A V E R A G E S   O V E R      50 S T E P S

 NSTEP = 25000000   TIME(PS) =   54000.000  TEMP(K) =   300.04  PRESS =    32.4
 Etot   =    -70983.6544  EKtot   =     17752.8182  EPtot      =    -88736.4726
 BOND   =       686.8752  ANGLE   =      1901.9796  DIHED      =      2856.5577
 1-4 NB =       806.6950  1-4 EEL =      8912.9757  VDWAALS    =     10042.5934
 EELEC  =   -113953.0080  EHBOND  =         0.0000  RESTRAINT  =         8.8589
 EAMBER (non-restraint)  =    -88745.3315
 EKCMT  =      7595.0439  VIRIAL  =      7393.7771  VOLUME     =    287624.7112
                                                    Density    =         1.0270
 ------------------------------------------------------------------------------

      R M S  F L U C T U A T I O N S

 NSTEP = 25000000   TIME(PS) =   54000.000  TEMP(K) =     1.61  PRESS =   160.1
 Etot   =       151.0194  EKtot   =        95.2555  EPtot      =       140.9602
 BOND   =        15.1157  ANGLE   =        28.1799  DIHED      =        17.4953
 1-4 NB =        11.7822  1-4 EEL =        37.6301  VDWAALS    =       141.2361
 EELEC  =       234.4266  EHBOND  =         0.0000  RESTRAINT  =         2.6704
 EAMBER (non-restraint)  =       138.2898
 EKCMT  =        61.7213  VIRIAL  =       997.3733  VOLUME     =       468.9494
                                                    Density    =         0.0017
 ------------------------------------------------------------------------------
