-------------------------------------------------------
          Amber 22 PMEMD                              2022
          -------------------------------------------------------

  [-O]verwriting output

File Assignments:

 Here is the input file:

 Explicit solvent molecular dynamics constant pressure 50 ns MD
  &cntrl
   imin=0, irest=1, ntx=5,
   ntpr=500000, ntwx=500000, ntwr=500000, nstlim=25000000,
   dt=0.002, ntt=3, tempi=300,
   temp0=300, gamma_ln=1.0, ig=-1,
   ntp=1, ntc=2, ntf=2, cut=9,
   ntb=2, iwrap=1, ioutfm=1,
   nmropt=1,
 /
 &wt type='DUMPFREQ', istep1=10 /
 &wt type='END' /
 DISANG=disres.rst
 DUMPAVE=dist_md.txt

Note: ig = -1. Setting random seed to   682132 based on wallclock time in
      microseconds.

--------------------------------------------------------------------------------
   1.  RESOURCE   USE:
--------------------------------------------------------------------------------

 getting box info from netcdf restart file
 NATOM  =   28882 NTYPES =      27 NBONH =   27097 MBONA  =    1814
 NTHETH =    3878 MTHETA =    2485 NPHIH =    7962 MPHIA  =    7855
 NHPARM =       0 NPARM  =       0 NNB   =   53082 NRES   =    8708
 NBONA  =    1814 NTHETA =    2485 NPHIA =    7855 NUMBND =      86
 NUMANG =     181 NPTRA  =     203 NATYP =      50 NPHB   =       0
 IFBOX  =       1 NMXRS  =      27 IFCAP =       0 NEXTRA =       0
 NCOPY  =       0

     BOX TYPE: RECTILINEAR

--------------------------------------------------------------------------------
   2.  CONTROL  DATA  FOR  THE  RUN
--------------------------------------------------------------------------------

default_name

General flags:
     imin    =       0, nmropt  =       1

Nature and format of input:
     ntx     =       5, irest   =       1, ntrx    =       1

Nature and format of output:
     ntxo    =       2, ntpr    =  500000, ntrx    =       1, ntwr    =  500000
     iwrap   =       1, ntwx    =  500000, ntwv    =       0, ntwe    =       0
     ioutfm  =       1, ntwprt  =       0, idecomp =       0, rbornstat=      0

Potential function:
     ntf     =       2, ntb     =       2, igb     =       0, nsnb    =      25
     ipol    =       0, gbsa    =       0, iesp    =       0
     dielc   =   1.00000, cut     =   9.00000, intdiel =   1.00000

Frozen or restrained atoms:
     ibelly  =       0, ntr     =       0

Molecular dynamics:
     nstlim  =  25000000, nscm    =      1000, nrespa  =         1
     t       =   0.00000, dt      =   0.00200, vlimit  =  -1.00000

Langevin dynamics temperature regulation:
     ig      =  682132
     temp0   = 300.00000, tempi   = 300.00000, gamma_ln=   1.00000

Pressure regulation:
     ntp     =       1
     pres0   =   1.00000, comp    =  44.60000, taup    =   1.00000

SHAKE:
     ntc     =       2, jfastw  =       0
     tol     =   0.00001

NMR refinement options:
     iscale  =       0, noeskp  =       1, ipnlty  =       1, mxsub   =       1
     scalm   = 100.00000, pencut  =   0.10000, tausw   =   0.10000

Ewald parameters:
     verbose =       0, ew_type =       0, nbflag  =       1, use_pme =       1
     vdwmeth =       1, eedmeth =       1, netfrc  =       1
     Box X =   71.343   Box Y =   63.055   Box Z =   63.832
     Alpha =   90.000   Beta  =   90.000   Gamma =   90.000
     NFFT1 =   72       NFFT2 =   64       NFFT3 =   64
     Cutoff=    9.000   Tol   =0.100E-04
     Ewald Coefficient =  0.30768
     Interpolation order =    4

--------------------------------------------------------------------------------
   3.  ATOMIC COORDINATES AND VELOCITIES
--------------------------------------------------------------------------------

default_name
 begin time read from input coords =  4000.000 ps

           Begin reading energy term weight changes/NMR restraints
 WEIGHT CHANGES:
 DUMPFREQ     10      0    0.000000    0.000000      0      0
                         ** No weight changes given **

 RESTRAINTS:
 Requested file redirections:
  DISANG    = disres.rst
  DUMPAVE   = dist_md.txt
 Restraints will be read from file: disres.rst
Here are comments from the DISANG input file:

                       Number of restraints read =     8

                  Done reading weight changes/NMR restraints

 Number of triangulated 3-point waters found:     8461

     Sum of charges from parm topology file =  -0.00199913
     Forcing neutrality...

--------------------------------------------------------------------------------
   4.  RESULTS
 NSTEP =   500000   TIME(PS) =    5000.000  TEMP(K) =   301.83  PRESS =   -63.5
 Etot   =    -70964.7246  EKtot   =     17858.4043  EPtot      =    -88823.1289
 BOND   =       680.5822  ANGLE   =      1883.7740  DIHED      =      2830.8744
 1-4 NB =       821.2680  1-4 EEL =      8880.6128  VDWAALS    =      9999.7035
 EELEC  =   -113926.0338  EHBOND  =         0.0000  RESTRAINT  =         6.0900
 EAMBER (non-restraint)  =    -88829.2190
 EKCMT  =      7710.7793  VIRIAL  =      8105.2589  VOLUME     =    287763.6582
                                                    Density    =         1.0268
 ------------------------------------------------------------------------------

      A V E R A G E S   O V E R      50 S T E P S

 NSTEP = 25000000   TIME(PS) =   54000.000  TEMP(K) =   300.06  PRESS =   -14.0
 Etot   =    -70991.2772  EKtot   =     17754.0863  EPtot      =    -88745.3635
 BOND   =       680.8463  ANGLE   =      1904.2800  DIHED      =      2851.3233
 1-4 NB =       805.3679  1-4 EEL =      8889.1481  VDWAALS    =      9993.8678
 EELEC  =   -113879.2225  EHBOND  =         0.0000  RESTRAINT  =         9.0256
 EAMBER (non-restraint)  =    -88754.3891
 EKCMT  =      7603.6917  VIRIAL  =      7690.8095  VOLUME     =    287529.3364
                                                    Density    =         1.0276
 ------------------------------------------------------------------------------

      R M S  F L U C T U A T I O N S

 NSTEP = 25000000   TIME(PS) =   54000.000  TEMP(K) =     1.89  PRESS =   128.5
 Etot   =       176.4031  EKtot   =       111.7275  EPtot      =       137.1662
 BOND   =        23.8085  ANGLE   =        30.9988  DIHED      =        21.9020
 1-4 NB =        12.1455  1-4 EEL =        40.7184  VDWAALS    =       116.2507
 EELEC  =       189.4820  EHBOND  =         0.0000  RESTRAINT  =         2.6380
 EAMBER (non-restraint)  =       134.5282
 EKCMT  =        73.6419  VIRIAL  =       800.4726  VOLUME     =       430.3108
                                                    Density    =         0.0015
 ------------------------------------------------------------------------------
