-------------------------------------------------------
          Amber 22 PMEMD                              2022
          -------------------------------------------------------

  [-O]verwriting output

File Assignments:

 Here is the input file:

 Explicit solvent molecular dynamics constant pressure 50 ns MD
  &cntrl
   imin=0, irest=1, ntx=5,
   ntpr=500000, ntwx=500000, ntwr=500000, nstlim=25000000,
   dt=0.002, ntt=3, tempi=300,
   temp0=300, gamma_ln=1.0, ig=-1,
   ntp=1, ntc=2, ntf=2, cut=9,
   ntb=2, iwrap=1, ioutfm=1,
   nmropt=1,
 /
 &wt type='DUMPFREQ', istep1=10 /
 &wt type='END' /
 DISANG=disres.rst
 DUMPAVE=dist_md.txt

Note: ig = -1. Setting random seed to   980091 based on wallclock time in
      microseconds.

--------------------------------------------------------------------------------
   1.  RESOURCE   USE:
--------------------------------------------------------------------------------

 getting box info from netcdf restart file
 NATOM  =   28883 NTYPES =      27 NBONH =   27099 MBONA  =    1813
 NTHETH =    3882 MTHETA =    2483 NPHIH =    7969 MPHIA  =    7853
 NHPARM =       0 NPARM  =       0 NNB   =   53089 NRES   =    8708
 NBONA  =    1813 NTHETA =    2483 NPHIA =    7853 NUMBND =      86
 NUMANG =     182 NPTRA  =     202 NATYP =      50 NPHB   =       0
 IFBOX  =       1 NMXRS  =      28 IFCAP =       0 NEXTRA =       0
 NCOPY  =       0

     BOX TYPE: RECTILINEAR

--------------------------------------------------------------------------------
   2.  CONTROL  DATA  FOR  THE  RUN
--------------------------------------------------------------------------------

default_name

General flags:
     imin    =       0, nmropt  =       1

Nature and format of input:
     ntx     =       5, irest   =       1, ntrx    =       1

Nature and format of output:
     ntxo    =       2, ntpr    =  500000, ntrx    =       1, ntwr    =  500000
     iwrap   =       1, ntwx    =  500000, ntwv    =       0, ntwe    =       0
     ioutfm  =       1, ntwprt  =       0, idecomp =       0, rbornstat=      0

Potential function:
     ntf     =       2, ntb     =       2, igb     =       0, nsnb    =      25
     ipol    =       0, gbsa    =       0, iesp    =       0
     dielc   =   1.00000, cut     =   9.00000, intdiel =   1.00000

Frozen or restrained atoms:
     ibelly  =       0, ntr     =       0

Molecular dynamics:
     nstlim  =  25000000, nscm    =      1000, nrespa  =         1
     t       =   0.00000, dt      =   0.00200, vlimit  =  -1.00000

Langevin dynamics temperature regulation:
     ig      =  980091
     temp0   = 300.00000, tempi   = 300.00000, gamma_ln=   1.00000

Pressure regulation:
     ntp     =       1
     pres0   =   1.00000, comp    =  44.60000, taup    =   1.00000

SHAKE:
     ntc     =       2, jfastw  =       0
     tol     =   0.00001

NMR refinement options:
     iscale  =       0, noeskp  =       1, ipnlty  =       1, mxsub   =       1
     scalm   = 100.00000, pencut  =   0.10000, tausw   =   0.10000

Ewald parameters:
     verbose =       0, ew_type =       0, nbflag  =       1, use_pme =       1
     vdwmeth =       1, eedmeth =       1, netfrc  =       1
     Box X =   71.240   Box Y =   62.965   Box Z =   63.740
     Alpha =   90.000   Beta  =   90.000   Gamma =   90.000
     NFFT1 =   72       NFFT2 =   64       NFFT3 =   64
     Cutoff=    9.000   Tol   =0.100E-04
     Ewald Coefficient =  0.30768
     Interpolation order =    4

--------------------------------------------------------------------------------
   3.  ATOMIC COORDINATES AND VELOCITIES
--------------------------------------------------------------------------------

default_name
 begin time read from input coords =  4000.000 ps

           Begin reading energy term weight changes/NMR restraints
 WEIGHT CHANGES:
 DUMPFREQ     10      0    0.000000    0.000000      0      0
                         ** No weight changes given **

 RESTRAINTS:
 Requested file redirections:
  DISANG    = disres.rst
  DUMPAVE   = dist_md.txt
 Restraints will be read from file: disres.rst
Here are comments from the DISANG input file:

                       Number of restraints read =     8

                  Done reading weight changes/NMR restraints

 Number of triangulated 3-point waters found:     8461

     Sum of charges from parm topology file =  -0.00200012
     Forcing neutrality...

--------------------------------------------------------------------------------
   4.  RESULTS
 NSTEP =   500000   TIME(PS) =    5000.000  TEMP(K) =   301.82  PRESS =   304.6
 Etot   =    -71144.0890  EKtot   =     17858.1602  EPtot      =    -89002.2491
 BOND   =       692.8867  ANGLE   =      1894.5268  DIHED      =      2857.8947
 1-4 NB =       800.2390  1-4 EEL =      8922.4720  VDWAALS    =     10345.4976
 EELEC  =   -114523.3790  EHBOND  =         0.0000  RESTRAINT  =         7.6130
 EAMBER (non-restraint)  =    -89009.8621
 EKCMT  =      7643.7928  VIRIAL  =      5756.0614  VOLUME     =    287015.7152
                                                    Density    =         1.0290
 ------------------------------------------------------------------------------

      A V E R A G E S   O V E R      50 S T E P S

 NSTEP = 25000000   TIME(PS) =   54000.000  TEMP(K) =   299.90  PRESS =    25.7
 Etot   =    -71017.9937  EKtot   =     17744.5901  EPtot      =    -88762.5838
 BOND   =       682.6214  ANGLE   =      1891.1598  DIHED      =      2840.8370
 1-4 NB =       806.1905  1-4 EEL =      8938.5922  VDWAALS    =     10051.1833
 EELEC  =   -113981.7293  EHBOND  =         0.0000  RESTRAINT  =         8.5614
 EAMBER (non-restraint)  =    -88771.1452
 EKCMT  =      7594.6610  VIRIAL  =      7435.4447  VOLUME     =    287536.0273
                                                    Density    =         1.0271
 ------------------------------------------------------------------------------

      R M S  F L U C T U A T I O N S

 NSTEP = 25000000   TIME(PS) =   54000.000  TEMP(K) =     1.44  PRESS =   155.5
 Etot   =       162.6200  EKtot   =        84.9839  EPtot      =       131.6586
 BOND   =        21.1026  ANGLE   =        31.4491  DIHED      =        18.7135
 1-4 NB =        12.8357  1-4 EEL =        46.6204  VDWAALS    =       142.4923
 EELEC  =       218.9681  EHBOND  =         0.0000  RESTRAINT  =         2.2530
 EAMBER (non-restraint)  =       129.4056
 EKCMT  =        66.9834  VIRIAL  =       968.1857  VOLUME     =       417.4852
                                                    Density    =         0.0015
 ------------------------------------------------------------------------------
