-------------------------------------------------------
          Amber 22 PMEMD                              2022
          -------------------------------------------------------

  [-O]verwriting output

File Assignments:

 Here is the input file:

 Explicit solvent molecular dynamics constant pressure 50 ns MD
  &cntrl
   imin=0, irest=1, ntx=5,
   ntpr=500000, ntwx=500000, ntwr=500000, nstlim=25000000,
   dt=0.002, ntt=3, tempi=300,
   temp0=300, gamma_ln=1.0, ig=-1,
   ntp=1, ntc=2, ntf=2, cut=9,
   ntb=2, iwrap=1, ioutfm=1,
   nmropt=1,
 /
 &wt type='DUMPFREQ', istep1=10 /
 &wt type='END' /
 DISANG=disres.rst
 DUMPAVE=dist_md.txt

Note: ig = -1. Setting random seed to    44289 based on wallclock time in
      microseconds.

--------------------------------------------------------------------------------
   1.  RESOURCE   USE:
--------------------------------------------------------------------------------

 getting box info from netcdf restart file
 NATOM  =   28885 NTYPES =      26 NBONH =   27100 MBONA  =    1814
 NTHETH =    3884 MTHETA =    2485 NPHIH =    7968 MPHIA  =    7855
 NHPARM =       0 NPARM  =       0 NNB   =   53098 NRES   =    8708
 NBONA  =    1814 NTHETA =    2485 NPHIA =    7855 NUMBND =      85
 NUMANG =     180 NPTRA  =     203 NATYP =      49 NPHB   =       0
 IFBOX  =       1 NMXRS  =      30 IFCAP =       0 NEXTRA =       0
 NCOPY  =       0

     BOX TYPE: RECTILINEAR

--------------------------------------------------------------------------------
   2.  CONTROL  DATA  FOR  THE  RUN
--------------------------------------------------------------------------------

default_name

General flags:
     imin    =       0, nmropt  =       1

Nature and format of input:
     ntx     =       5, irest   =       1, ntrx    =       1

Nature and format of output:
     ntxo    =       2, ntpr    =  500000, ntrx    =       1, ntwr    =  500000
     iwrap   =       1, ntwx    =  500000, ntwv    =       0, ntwe    =       0
     ioutfm  =       1, ntwprt  =       0, idecomp =       0, rbornstat=      0

Potential function:
     ntf     =       2, ntb     =       2, igb     =       0, nsnb    =      25
     ipol    =       0, gbsa    =       0, iesp    =       0
     dielc   =   1.00000, cut     =   9.00000, intdiel =   1.00000

Frozen or restrained atoms:
     ibelly  =       0, ntr     =       0

Molecular dynamics:
     nstlim  =  25000000, nscm    =      1000, nrespa  =         1
     t       =   0.00000, dt      =   0.00200, vlimit  =  -1.00000

Langevin dynamics temperature regulation:
     ig      =   44289
     temp0   = 300.00000, tempi   = 300.00000, gamma_ln=   1.00000

Pressure regulation:
     ntp     =       1
     pres0   =   1.00000, comp    =  44.60000, taup    =   1.00000

SHAKE:
     ntc     =       2, jfastw  =       0
     tol     =   0.00001

NMR refinement options:
     iscale  =       0, noeskp  =       1, ipnlty  =       1, mxsub   =       1
     scalm   = 100.00000, pencut  =   0.10000, tausw   =   0.10000

Ewald parameters:
     verbose =       0, ew_type =       0, nbflag  =       1, use_pme =       1
     vdwmeth =       1, eedmeth =       1, netfrc  =       1
     Box X =   71.279   Box Y =   62.999   Box Z =   63.775
     Alpha =   90.000   Beta  =   90.000   Gamma =   90.000
     NFFT1 =   72       NFFT2 =   64       NFFT3 =   64
     Cutoff=    9.000   Tol   =0.100E-04
     Ewald Coefficient =  0.30768
     Interpolation order =    4

--------------------------------------------------------------------------------
   3.  ATOMIC COORDINATES AND VELOCITIES
--------------------------------------------------------------------------------

default_name
 begin time read from input coords =  4000.000 ps

           Begin reading energy term weight changes/NMR restraints
 WEIGHT CHANGES:
 DUMPFREQ     10      0    0.000000    0.000000      0      0
                         ** No weight changes given **

 RESTRAINTS:
 Requested file redirections:
  DISANG    = disres.rst
  DUMPAVE   = dist_md.txt
 Restraints will be read from file: disres.rst
Here are comments from the DISANG input file:

                       Number of restraints read =     8

                  Done reading weight changes/NMR restraints

 Number of triangulated 3-point waters found:     8461

     Sum of charges from parm topology file =  -0.00600112
     Forcing neutrality...

--------------------------------------------------------------------------------
   4.  RESULTS
 NSTEP =   500000   TIME(PS) =    5000.000  TEMP(K) =   300.83  PRESS =   -29.0
 Etot   =    -71105.0860  EKtot   =     17800.9512  EPtot      =    -88906.0372
 BOND   =       678.8421  ANGLE   =      1873.1449  DIHED      =      2848.4227
 1-4 NB =       824.9169  1-4 EEL =      8939.8128  VDWAALS    =      9929.6802
 EELEC  =   -114008.5487  EHBOND  =         0.0000  RESTRAINT  =         7.6919
 EAMBER (non-restraint)  =    -88913.7291
 EKCMT  =      7658.6770  VIRIAL  =      7838.1770  VOLUME     =    286764.4675
                                                    Density    =         1.0300
 ------------------------------------------------------------------------------

      A V E R A G E S   O V E R      50 S T E P S

 NSTEP = 25000000   TIME(PS) =   54000.000  TEMP(K) =   299.73  PRESS =     5.5
 Etot   =    -71048.7890  EKtot   =     17736.0537  EPtot      =    -88784.8427
 BOND   =       684.3319  ANGLE   =      1886.3640  DIHED      =      2852.0954
 1-4 NB =       808.5099  1-4 EEL =      8913.8116  VDWAALS    =     10030.2687
 EELEC  =   -113968.8772  EHBOND  =         0.0000  RESTRAINT  =         8.6530
 EAMBER (non-restraint)  =    -88793.4957
 EKCMT  =      7601.1212  VIRIAL  =      7567.2613  VOLUME     =    287565.6337
                                                    Density    =         1.0271
 ------------------------------------------------------------------------------

      R M S  F L U C T U A T I O N S

 NSTEP = 25000000   TIME(PS) =   54000.000  TEMP(K) =     1.41  PRESS =   142.3
 Etot   =       166.4110  EKtot   =        83.3501  EPtot      =       143.1744
 BOND   =        23.5692  ANGLE   =        27.8549  DIHED      =        19.5248
 1-4 NB =        14.0456  1-4 EEL =        44.1224  VDWAALS    =       140.6310
 EELEC  =       224.9221  EHBOND  =         0.0000  RESTRAINT  =         2.1993
 EAMBER (non-restraint)  =       140.9751
 EKCMT  =        58.5285  VIRIAL  =       898.7931  VOLUME     =       414.7164
                                                    Density    =         0.0015
 ------------------------------------------------------------------------------
