-------------------------------------------------------
          Amber 22 PMEMD                              2022
          -------------------------------------------------------

  [-O]verwriting output

File Assignments:

 Here is the input file:

 Explicit solvent molecular dynamics constant pressure 50 ns MD
  &cntrl
   imin=0, irest=1, ntx=5,
   ntpr=500000, ntwx=500000, ntwr=500000, nstlim=25000000,
   dt=0.002, ntt=3, tempi=300,
   temp0=300, gamma_ln=1.0, ig=-1,
   ntp=1, ntc=2, ntf=2, cut=9,
   ntb=2, iwrap=1, ioutfm=1,
   nmropt=1,
 /
 &wt type='DUMPFREQ', istep1=10 /
 &wt type='END' /
 DISANG=disres.rst
 DUMPAVE=dist_md.txt

Note: ig = -1. Setting random seed to   598610 based on wallclock time in
      microseconds.

--------------------------------------------------------------------------------
   1.  RESOURCE   USE:
--------------------------------------------------------------------------------

 getting box info from netcdf restart file
 NATOM  =   28885 NTYPES =      26 NBONH =   27101 MBONA  =    1813
 NTHETH =    3880 MTHETA =    2483 NPHIH =    7966 MPHIA  =    7851
 NHPARM =       0 NPARM  =       0 NNB   =   53086 NRES   =    8709
 NBONA  =    1813 NTHETA =    2483 NPHIA =    7851 NUMBND =      85
 NUMANG =     180 NPTRA  =     203 NATYP =      49 NPHB   =       0
 IFBOX  =       1 NMXRS  =      27 IFCAP =       0 NEXTRA =       0
 NCOPY  =       0

     BOX TYPE: RECTILINEAR

--------------------------------------------------------------------------------
   2.  CONTROL  DATA  FOR  THE  RUN
--------------------------------------------------------------------------------

default_name

General flags:
     imin    =       0, nmropt  =       1

Nature and format of input:
     ntx     =       5, irest   =       1, ntrx    =       1

Nature and format of output:
     ntxo    =       2, ntpr    =  500000, ntrx    =       1, ntwr    =  500000
     iwrap   =       1, ntwx    =  500000, ntwv    =       0, ntwe    =       0
     ioutfm  =       1, ntwprt  =       0, idecomp =       0, rbornstat=      0

Potential function:
     ntf     =       2, ntb     =       2, igb     =       0, nsnb    =      25
     ipol    =       0, gbsa    =       0, iesp    =       0
     dielc   =   1.00000, cut     =   9.00000, intdiel =   1.00000

Frozen or restrained atoms:
     ibelly  =       0, ntr     =       0

Molecular dynamics:
     nstlim  =  25000000, nscm    =      1000, nrespa  =         1
     t       =   0.00000, dt      =   0.00200, vlimit  =  -1.00000

Langevin dynamics temperature regulation:
     ig      =  598610
     temp0   = 300.00000, tempi   = 300.00000, gamma_ln=   1.00000

Pressure regulation:
     ntp     =       1
     pres0   =   1.00000, comp    =  44.60000, taup    =   1.00000

SHAKE:
     ntc     =       2, jfastw  =       0
     tol     =   0.00001

NMR refinement options:
     iscale  =       0, noeskp  =       1, ipnlty  =       1, mxsub   =       1
     scalm   = 100.00000, pencut  =   0.10000, tausw   =   0.10000

Ewald parameters:
     verbose =       0, ew_type =       0, nbflag  =       1, use_pme =       1
     vdwmeth =       1, eedmeth =       1, netfrc  =       1
     Box X =   71.339   Box Y =   63.052   Box Z =   63.829
     Alpha =   90.000   Beta  =   90.000   Gamma =   90.000
     NFFT1 =   72       NFFT2 =   64       NFFT3 =   64
     Cutoff=    9.000   Tol   =0.100E-04
     Ewald Coefficient =  0.30768
     Interpolation order =    4

--------------------------------------------------------------------------------
   3.  ATOMIC COORDINATES AND VELOCITIES
--------------------------------------------------------------------------------

default_name
 begin time read from input coords =  4000.000 ps

           Begin reading energy term weight changes/NMR restraints
 WEIGHT CHANGES:
 DUMPFREQ     10      0    0.000000    0.000000      0      0
                         ** No weight changes given **

 RESTRAINTS:
 Requested file redirections:
  DISANG    = disres.rst
  DUMPAVE   = dist_md.txt
 Restraints will be read from file: disres.rst
Here are comments from the DISANG input file:

                       Number of restraints read =     8

                  Done reading weight changes/NMR restraints

 Number of triangulated 3-point waters found:     8462

     Sum of charges from parm topology file =  -0.00200013
     Forcing neutrality...

--------------------------------------------------------------------------------
   4.  RESULTS
 NSTEP =   500000   TIME(PS) =    5000.000  TEMP(K) =   300.26  PRESS =   -20.5
 Etot   =    -71025.8176  EKtot   =     17767.1152  EPtot      =    -88792.9329
 BOND   =       683.3501  ANGLE   =      1894.5633  DIHED      =      2824.8189
 1-4 NB =       784.1808  1-4 EEL =      8952.1297  VDWAALS    =      9908.3628
 EELEC  =   -113848.7787  EHBOND  =         0.0000  RESTRAINT  =         8.4401
 EAMBER (non-restraint)  =    -88801.3730
 EKCMT  =      7663.1437  VIRIAL  =      7790.3246  VOLUME     =    286939.8568
                                                    Density    =         1.0294
 ------------------------------------------------------------------------------

      A V E R A G E S   O V E R      50 S T E P S

 NSTEP = 25000000   TIME(PS) =   54000.000  TEMP(K) =   300.00  PRESS =    -4.9
 Etot   =    -71006.8429  EKtot   =     17751.6532  EPtot      =    -88758.4962
 BOND   =       677.6196  ANGLE   =      1888.7196  DIHED      =      2848.4349
 1-4 NB =       805.7049  1-4 EEL =      8954.0271  VDWAALS    =     10031.0273
 EELEC  =   -113972.9730  EHBOND  =         0.0000  RESTRAINT  =         8.9435
 EAMBER (non-restraint)  =    -88767.4396
 EKCMT  =      7595.3074  VIRIAL  =      7626.0621  VOLUME     =    287473.6869
                                                    Density    =         1.0275
 ------------------------------------------------------------------------------

      R M S  F L U C T U A T I O N S

 NSTEP = 25000000   TIME(PS) =   54000.000  TEMP(K) =     1.92  PRESS =   165.1
 Etot   =       169.2683  EKtot   =       113.5460  EPtot      =       128.8103
 BOND   =        22.2834  ANGLE   =        31.7445  DIHED      =        16.8636
 1-4 NB =        11.6587  1-4 EEL =        42.7055  VDWAALS    =       137.2770
 EELEC  =       200.8121  EHBOND  =         0.0000  RESTRAINT  =         2.2550
 EAMBER (non-restraint)  =       126.5553
 EKCMT  =        67.0294  VIRIAL  =      1024.0173  VOLUME     =       434.3040
                                                    Density    =         0.0016
 ------------------------------------------------------------------------------
