-------------------------------------------------------
          Amber 22 PMEMD                              2022
          -------------------------------------------------------

  [-O]verwriting output

File Assignments:

 Here is the input file:

 Explicit solvent molecular dynamics constant pressure 50 ns MD
  &cntrl
   imin=0, irest=1, ntx=5,
   ntpr=500000, ntwx=500000, ntwr=500000, nstlim=25000000,
   dt=0.002, ntt=3, tempi=300,
   temp0=300, gamma_ln=1.0, ig=-1,
   ntp=1, ntc=2, ntf=2, cut=9,
   ntb=2, iwrap=1, ioutfm=1,
   nmropt=1,
 /
 &wt type='DUMPFREQ', istep1=10 /
 &wt type='END' /
 DISANG=disres.rst
 DUMPAVE=dist_md.txt

Note: ig = -1. Setting random seed to   979000 based on wallclock time in
      microseconds.

--------------------------------------------------------------------------------
   1.  RESOURCE   USE:
--------------------------------------------------------------------------------

 getting box info from netcdf restart file
 NATOM  =   28886 NTYPES =      27 NBONH =   27100 MBONA  =    1815
 NTHETH =    3884 MTHETA =    2486 NPHIH =    7969 MPHIA  =    7857
 NHPARM =       0 NPARM  =       0 NNB   =   53103 NRES   =    8708
 NBONA  =    1815 NTHETA =    2486 NPHIA =    7857 NUMBND =      87
 NUMANG =     185 NPTRA  =     203 NATYP =      50 NPHB   =       0
 IFBOX  =       1 NMXRS  =      31 IFCAP =       0 NEXTRA =       0
 NCOPY  =       0

     BOX TYPE: RECTILINEAR

--------------------------------------------------------------------------------
   2.  CONTROL  DATA  FOR  THE  RUN
--------------------------------------------------------------------------------

default_name

General flags:
     imin    =       0, nmropt  =       1

Nature and format of input:
     ntx     =       5, irest   =       1, ntrx    =       1

Nature and format of output:
     ntxo    =       2, ntpr    =  500000, ntrx    =       1, ntwr    =  500000
     iwrap   =       1, ntwx    =  500000, ntwv    =       0, ntwe    =       0
     ioutfm  =       1, ntwprt  =       0, idecomp =       0, rbornstat=      0

Potential function:
     ntf     =       2, ntb     =       2, igb     =       0, nsnb    =      25
     ipol    =       0, gbsa    =       0, iesp    =       0
     dielc   =   1.00000, cut     =   9.00000, intdiel =   1.00000

Frozen or restrained atoms:
     ibelly  =       0, ntr     =       0

Molecular dynamics:
     nstlim  =  25000000, nscm    =      1000, nrespa  =         1
     t       =   0.00000, dt      =   0.00200, vlimit  =  -1.00000

Langevin dynamics temperature regulation:
     ig      =  979000
     temp0   = 300.00000, tempi   = 300.00000, gamma_ln=   1.00000

Pressure regulation:
     ntp     =       1
     pres0   =   1.00000, comp    =  44.60000, taup    =   1.00000

SHAKE:
     ntc     =       2, jfastw  =       0
     tol     =   0.00001

NMR refinement options:
     iscale  =       0, noeskp  =       1, ipnlty  =       1, mxsub   =       1
     scalm   = 100.00000, pencut  =   0.10000, tausw   =   0.10000

Ewald parameters:
     verbose =       0, ew_type =       0, nbflag  =       1, use_pme =       1
     vdwmeth =       1, eedmeth =       1, netfrc  =       1
     Box X =   71.363   Box Y =   63.074   Box Z =   63.851
     Alpha =   90.000   Beta  =   90.000   Gamma =   90.000
     NFFT1 =   72       NFFT2 =   64       NFFT3 =   64
     Cutoff=    9.000   Tol   =0.100E-04
     Ewald Coefficient =  0.30768
     Interpolation order =    4

--------------------------------------------------------------------------------
   3.  ATOMIC COORDINATES AND VELOCITIES
--------------------------------------------------------------------------------

default_name
 begin time read from input coords =  4000.000 ps

           Begin reading energy term weight changes/NMR restraints
 WEIGHT CHANGES:
 DUMPFREQ     10      0    0.000000    0.000000      0      0
                         ** No weight changes given **

 RESTRAINTS:
 Requested file redirections:
  DISANG    = disres.rst
  DUMPAVE   = dist_md.txt
 Restraints will be read from file: disres.rst
Here are comments from the DISANG input file:

                       Number of restraints read =     8

                  Done reading weight changes/NMR restraints

 Number of triangulated 3-point waters found:     8461

     Sum of charges from parm topology file =  -0.00100012
     Forcing neutrality...

--------------------------------------------------------------------------------
   4.  RESULTS
 NSTEP =   500000   TIME(PS) =    5000.000  TEMP(K) =   299.58  PRESS =   -54.3
 Etot   =    -71308.8189  EKtot   =     17728.3945  EPtot      =    -89037.2134
 BOND   =       688.7042  ANGLE   =      1916.5025  DIHED      =      2837.8515
 1-4 NB =       815.1197  1-4 EEL =      8990.2848  VDWAALS    =      9960.5927
 EELEC  =   -114255.4006  EHBOND  =         0.0000  RESTRAINT  =         9.1318
 EAMBER (non-restraint)  =    -89046.3452
 EKCMT  =      7573.2897  VIRIAL  =      7909.5929  VOLUME     =    286940.6112
                                                    Density    =         1.0294
 ------------------------------------------------------------------------------

      A V E R A G E S   O V E R      50 S T E P S

 NSTEP = 25000000   TIME(PS) =   54000.000  TEMP(K) =   300.28  PRESS =    -8.9
 Etot   =    -70946.0121  EKtot   =     17769.6561  EPtot      =    -88715.6682
 BOND   =       689.8610  ANGLE   =      1900.2154  DIHED      =      2858.9565
 1-4 NB =       808.3706  1-4 EEL =      8930.2204  VDWAALS    =     10016.5615
 EELEC  =   -113928.2590  EHBOND  =         0.0000  RESTRAINT  =         8.4055
 EAMBER (non-restraint)  =    -88724.0737
 EKCMT  =      7605.0956  VIRIAL  =      7660.5542  VOLUME     =    287574.0731
                                                    Density    =         1.0272
 ------------------------------------------------------------------------------

      R M S  F L U C T U A T I O N S

 NSTEP = 25000000   TIME(PS) =   54000.000  TEMP(K) =     1.53  PRESS =   129.3
 Etot   =       177.8678  EKtot   =        90.7414  EPtot      =       150.4622
 BOND   =        18.5130  ANGLE   =        30.0571  DIHED      =        20.0303
 1-4 NB =        11.5769  1-4 EEL =        47.5780  VDWAALS    =       112.4448
 EELEC  =       220.6970  EHBOND  =         0.0000  RESTRAINT  =         2.0973
 EAMBER (non-restraint)  =       148.3649
 EKCMT  =        63.0608  VIRIAL  =       801.4082  VOLUME     =       416.9822
                                                    Density    =         0.0015
 ------------------------------------------------------------------------------
