-------------------------------------------------------
          Amber 22 PMEMD                              2022
          -------------------------------------------------------

  [-O]verwriting output

File Assignments:

 Here is the input file:

Explicit solvent molecular dynamics constant pressure 50 ns MD
 &cntrl
   imin=0, irest=1, ntx=5,
   ntpr=500000, ntwx=500000, ntwr=500000, nstlim=25000000,
   dt=0.002, ntt=3, tempi=300,
   temp0=300, gamma_ln=1.0, ig=-1,
   ntp=1, ntc=2, ntf=2, cut=9,
   ntb=2, iwrap=1, ioutfm=1,
 &end
 &wt
 type="END",
 &end
DISANG=disres.rst

Note: ig = -1. Setting random seed to   422277 based on wallclock time in
      microseconds.

--------------------------------------------------------------------------------
   1.  RESOURCE   USE:
--------------------------------------------------------------------------------

 getting box info from netcdf restart file
 NATOM  =   25627 NTYPES =      27 NBONH =   23864 MBONA  =    1801
 NTHETH =    3827 MTHETA =    2482 NPHIH =    7861 MPHIA  =    7830
 NHPARM =       0 NPARM  =       0 NNB   =   48654 NRES   =    7635
 NBONA  =    1801 NTHETA =    2482 NPHIA =    7830 NUMBND =     101
 NUMANG =     226 NPTRA  =     197 NATYP =      57 NPHB   =       0
 IFBOX  =       1 NMXRS  =      24 IFCAP =       0 NEXTRA =       0
 NCOPY  =       0

     BOX TYPE: RECTILINEAR

--------------------------------------------------------------------------------
   2.  CONTROL  DATA  FOR  THE  RUN
--------------------------------------------------------------------------------

default_name

General flags:
     imin    =       0, nmropt  =       0

Nature and format of input:
     ntx     =       5, irest   =       1, ntrx    =       1

Nature and format of output:
     ntxo    =       2, ntpr    =  500000, ntrx    =       1, ntwr    =  500000
     iwrap   =       1, ntwx    =  500000, ntwv    =       0, ntwe    =       0
     ioutfm  =       1, ntwprt  =       0, idecomp =       0, rbornstat=      0

Potential function:
     ntf     =       2, ntb     =       2, igb     =       0, nsnb    =      25
     ipol    =       0, gbsa    =       0, iesp    =       0
     dielc   =   1.00000, cut     =   9.00000, intdiel =   1.00000

Frozen or restrained atoms:
     ibelly  =       0, ntr     =       0

Molecular dynamics:
     nstlim  =  25000000, nscm    =      1000, nrespa  =         1
     t       =   0.00000, dt      =   0.00200, vlimit  =  -1.00000

Langevin dynamics temperature regulation:
     ig      =  422277
     temp0   = 300.00000, tempi   = 300.00000, gamma_ln=   1.00000

Pressure regulation:
     ntp     =       1
     pres0   =   1.00000, comp    =  44.60000, taup    =   1.00000

SHAKE:
     ntc     =       2, jfastw  =       0
     tol     =   0.00001

Ewald parameters:
     verbose =       0, ew_type =       0, nbflag  =       1, use_pme =       1
     vdwmeth =       1, eedmeth =       1, netfrc  =       1
     Box X =   65.126   Box Y =   61.608   Box Z =   63.643
     Alpha =   90.000   Beta  =   90.000   Gamma =   90.000
     NFFT1 =   64       NFFT2 =   64       NFFT3 =   64
     Cutoff=    9.000   Tol   =0.100E-04
     Ewald Coefficient =  0.30768
     Interpolation order =    4

--------------------------------------------------------------------------------
   3.  ATOMIC COORDINATES AND VELOCITIES
--------------------------------------------------------------------------------

default_name
 begin time read from input coords =  4000.000 ps

 Number of triangulated 3-point waters found:     7392

     Sum of charges from parm topology file =   0.00000087
     Forcing neutrality...

--------------------------------------------------------------------------------
   4.  RESULTS
 NSTEP =   500000   TIME(PS) =    5000.000  TEMP(K) =   301.40  PRESS =    82.8
 Etot   =    -61444.5272  EKtot   =     15877.0137  EPtot      =    -77321.5409
 BOND   =       630.5142  ANGLE   =      1901.8512  DIHED      =      2815.8717
 1-4 NB =       823.1399  1-4 EEL =      8661.3060  VDWAALS    =      8443.2451
 EELEC  =   -100597.4689  EHBOND  =         0.0000  RESTRAINT  =         0.0000
 EKCMT  =      6655.8903  VIRIAL  =      6199.6617  VOLUME     =    255241.9167
                                                    Density    =         1.0298
 ------------------------------------------------------------------------------

      A V E R A G E S   O V E R      50 S T E P S

 NSTEP = 25000000   TIME(PS) =   54000.000  TEMP(K) =   300.21  PRESS =   -16.2
 Etot   =    -61733.5034  EKtot   =     15814.0777  EPtot      =    -77547.5812
 BOND   =       687.3622  ANGLE   =      1886.5151  DIHED      =      2816.1985
 1-4 NB =       799.2970  1-4 EEL =      8539.1144  VDWAALS    =      8451.2134
 EELEC  =   -100727.2818  EHBOND  =         0.0000  RESTRAINT  =         0.0000
 EKCMT  =      6658.9178  VIRIAL  =      6747.7549  VOLUME     =    254840.2434
                                                    Density    =         1.0315
 ------------------------------------------------------------------------------

      R M S  F L U C T U A T I O N S

 NSTEP = 25000000   TIME(PS) =   54000.000  TEMP(K) =     1.74  PRESS =   174.2
 Etot   =       198.8091  EKtot   =        91.5493  EPtot      =       156.7156
 BOND   =        25.6911  ANGLE   =        31.1607  DIHED      =        20.2106
 1-4 NB =        12.4823  1-4 EEL =        52.4678  VDWAALS    =       130.5457
 EELEC  =       203.5346  EHBOND  =         0.0000  RESTRAINT  =         0.0000
 EKCMT  =        59.4337  VIRIAL  =       967.4869  VOLUME     =       433.5950
                                                    Density    =         0.0018
 ------------------------------------------------------------------------------
