-------------------------------------------------------
          Amber 22 PMEMD                              2022
          -------------------------------------------------------

  [-O]verwriting output

File Assignments:

 Here is the input file:

 Explicit solvent molecular dynamics constant pressure 50 ns MD
  &cntrl
   imin=0, irest=1, ntx=5,
   ntpr=500000, ntwx=500000, ntwr=500000, nstlim=25000000,
   dt=0.002, ntt=3, tempi=300,
   temp0=300, gamma_ln=1.0, ig=-1,
   ntp=1, ntc=2, ntf=2, cut=9,
   ntb=2, iwrap=1, ioutfm=1,
   nmropt=1,
 /
 &wt type='DUMPFREQ', istep1=10 /
 &wt type='END' /
 DISANG=disres.rst
 DUMPAVE=dist_md.txt

Note: ig = -1. Setting random seed to   427484 based on wallclock time in
      microseconds.

--------------------------------------------------------------------------------
   1.  RESOURCE   USE:
--------------------------------------------------------------------------------

 getting box info from netcdf restart file
 NATOM  =   28882 NTYPES =      26 NBONH =   27098 MBONA  =    1813
 NTHETH =    3880 MTHETA =    2483 NPHIH =    7966 MPHIA  =    7851
 NHPARM =       0 NPARM  =       0 NNB   =   53082 NRES   =    8708
 NBONA  =    1813 NTHETA =    2483 NPHIA =    7851 NUMBND =      85
 NUMANG =     180 NPTRA  =     203 NATYP =      49 NPHB   =       0
 IFBOX  =       1 NMXRS  =      27 IFCAP =       0 NEXTRA =       0
 NCOPY  =       0

     BOX TYPE: RECTILINEAR

--------------------------------------------------------------------------------
   2.  CONTROL  DATA  FOR  THE  RUN
--------------------------------------------------------------------------------

default_name

General flags:
     imin    =       0, nmropt  =       1

Nature and format of input:
     ntx     =       5, irest   =       1, ntrx    =       1

Nature and format of output:
     ntxo    =       2, ntpr    =  500000, ntrx    =       1, ntwr    =  500000
     iwrap   =       1, ntwx    =  500000, ntwv    =       0, ntwe    =       0
     ioutfm  =       1, ntwprt  =       0, idecomp =       0, rbornstat=      0

Potential function:
     ntf     =       2, ntb     =       2, igb     =       0, nsnb    =      25
     ipol    =       0, gbsa    =       0, iesp    =       0
     dielc   =   1.00000, cut     =   9.00000, intdiel =   1.00000

Frozen or restrained atoms:
     ibelly  =       0, ntr     =       0

Molecular dynamics:
     nstlim  =  25000000, nscm    =      1000, nrespa  =         1
     t       =   0.00000, dt      =   0.00200, vlimit  =  -1.00000

Langevin dynamics temperature regulation:
     ig      =  427484
     temp0   = 300.00000, tempi   = 300.00000, gamma_ln=   1.00000

Pressure regulation:
     ntp     =       1
     pres0   =   1.00000, comp    =  44.60000, taup    =   1.00000

SHAKE:
     ntc     =       2, jfastw  =       0
     tol     =   0.00001

NMR refinement options:
     iscale  =       0, noeskp  =       1, ipnlty  =       1, mxsub   =       1
     scalm   = 100.00000, pencut  =   0.10000, tausw   =   0.10000

Ewald parameters:
     verbose =       0, ew_type =       0, nbflag  =       1, use_pme =       1
     vdwmeth =       1, eedmeth =       1, netfrc  =       1
     Box X =   71.419   Box Y =   63.123   Box Z =   63.900
     Alpha =   90.000   Beta  =   90.000   Gamma =   90.000
     NFFT1 =   72       NFFT2 =   64       NFFT3 =   64
     Cutoff=    9.000   Tol   =0.100E-04
     Ewald Coefficient =  0.30768
     Interpolation order =    4

--------------------------------------------------------------------------------
   3.  ATOMIC COORDINATES AND VELOCITIES
--------------------------------------------------------------------------------

default_name
 begin time read from input coords =  4000.000 ps

           Begin reading energy term weight changes/NMR restraints
 WEIGHT CHANGES:
 DUMPFREQ     10      0    0.000000    0.000000      0      0
                         ** No weight changes given **

 RESTRAINTS:
 Requested file redirections:
  DISANG    = disres.rst
  DUMPAVE   = dist_md.txt
 Restraints will be read from file: disres.rst
Here are comments from the DISANG input file:

                       Number of restraints read =     8

                  Done reading weight changes/NMR restraints

 Number of triangulated 3-point waters found:     8461

     Sum of charges from parm topology file =   0.00000088
     Forcing neutrality...

--------------------------------------------------------------------------------
   4.  RESULTS
 NSTEP =   500000   TIME(PS) =    5000.000  TEMP(K) =   300.47  PRESS =   284.7
 Etot   =    -70864.4818  EKtot   =     17777.8926  EPtot      =    -88642.3744
 BOND   =       694.3055  ANGLE   =      1915.8892  DIHED      =      2815.5949
 1-4 NB =       816.1880  1-4 EEL =      8930.7469  VDWAALS    =     10150.4266
 EELEC  =   -113971.6882  EHBOND  =         0.0000  RESTRAINT  =         6.1626
 EAMBER (non-restraint)  =    -88648.5370
 EKCMT  =      7593.3239  VIRIAL  =      5824.1786  VOLUME     =    287788.4798
                                                    Density    =         1.0262
 ------------------------------------------------------------------------------

      A V E R A G E S   O V E R      50 S T E P S

 NSTEP = 25000000   TIME(PS) =   54000.000  TEMP(K) =   300.12  PRESS =    13.0
 Etot   =    -71002.8401  EKtot   =     17757.0767  EPtot      =    -88759.9168
 BOND   =       683.6428  ANGLE   =      1895.5553  DIHED      =      2852.3916
 1-4 NB =       808.1005  1-4 EEL =      8931.9439  VDWAALS    =     10045.4668
 EELEC  =   -113985.3620  EHBOND  =         0.0000  RESTRAINT  =         8.3444
 EAMBER (non-restraint)  =    -88768.2612
 EKCMT  =      7616.2320  VIRIAL  =      7535.8149  VOLUME     =    287614.1951
                                                    Density    =         1.0268
 ------------------------------------------------------------------------------

      R M S  F L U C T U A T I O N S

 NSTEP = 25000000   TIME(PS) =   54000.000  TEMP(K) =     1.69  PRESS =   162.2
 Etot   =       169.9508  EKtot   =       100.2280  EPtot      =       125.1149
 BOND   =        19.8072  ANGLE   =        38.7746  DIHED      =        18.4535
 1-4 NB =        11.0848  1-4 EEL =        43.2707  VDWAALS    =       121.2589
 EELEC  =       187.5132  EHBOND  =         0.0000  RESTRAINT  =         2.1988
 EAMBER (non-restraint)  =       122.9161
 EKCMT  =        65.8941  VIRIAL  =      1004.4069  VOLUME     =       443.5816
                                                    Density    =         0.0016
 ------------------------------------------------------------------------------
