-------------------------------------------------------
          Amber 22 PMEMD                              2022
          -------------------------------------------------------

  [-O]verwriting output

File Assignments:

 Here is the input file:

 Explicit solvent molecular dynamics constant pressure 50 ns MD
  &cntrl
   imin=0, irest=1, ntx=5,
   ntpr=500000, ntwx=500000, ntwr=500000, nstlim=25000000,
   dt=0.002, ntt=3, tempi=300,
   temp0=300, gamma_ln=1.0, ig=-1,
   ntp=1, ntc=2, ntf=2, cut=9,
   ntb=2, iwrap=1, ioutfm=1,
   nmropt=1,
 /
 &wt type='DUMPFREQ', istep1=10 /
 &wt type='END' /
 DISANG=disres.rst
 DUMPAVE=dist_md.txt

Note: ig = -1. Setting random seed to   695178 based on wallclock time in
      microseconds.

--------------------------------------------------------------------------------
   1.  RESOURCE   USE:
--------------------------------------------------------------------------------

 getting box info from netcdf restart file
 NATOM  =   28885 NTYPES =      26 NBONH =   27100 MBONA  =    1814
 NTHETH =    3884 MTHETA =    2485 NPHIH =    7968 MPHIA  =    7855
 NHPARM =       0 NPARM  =       0 NNB   =   53098 NRES   =    8708
 NBONA  =    1814 NTHETA =    2485 NPHIA =    7855 NUMBND =      85
 NUMANG =     180 NPTRA  =     203 NATYP =      49 NPHB   =       0
 IFBOX  =       1 NMXRS  =      30 IFCAP =       0 NEXTRA =       0
 NCOPY  =       0

     BOX TYPE: RECTILINEAR

--------------------------------------------------------------------------------
   2.  CONTROL  DATA  FOR  THE  RUN
--------------------------------------------------------------------------------

default_name

General flags:
     imin    =       0, nmropt  =       1

Nature and format of input:
     ntx     =       5, irest   =       1, ntrx    =       1

Nature and format of output:
     ntxo    =       2, ntpr    =  500000, ntrx    =       1, ntwr    =  500000
     iwrap   =       1, ntwx    =  500000, ntwv    =       0, ntwe    =       0
     ioutfm  =       1, ntwprt  =       0, idecomp =       0, rbornstat=      0

Potential function:
     ntf     =       2, ntb     =       2, igb     =       0, nsnb    =      25
     ipol    =       0, gbsa    =       0, iesp    =       0
     dielc   =   1.00000, cut     =   9.00000, intdiel =   1.00000

Frozen or restrained atoms:
     ibelly  =       0, ntr     =       0

Molecular dynamics:
     nstlim  =  25000000, nscm    =      1000, nrespa  =         1
     t       =   0.00000, dt      =   0.00200, vlimit  =  -1.00000

Langevin dynamics temperature regulation:
     ig      =  695178
     temp0   = 300.00000, tempi   = 300.00000, gamma_ln=   1.00000

Pressure regulation:
     ntp     =       1
     pres0   =   1.00000, comp    =  44.60000, taup    =   1.00000

SHAKE:
     ntc     =       2, jfastw  =       0
     tol     =   0.00001

NMR refinement options:
     iscale  =       0, noeskp  =       1, ipnlty  =       1, mxsub   =       1
     scalm   = 100.00000, pencut  =   0.10000, tausw   =   0.10000

Ewald parameters:
     verbose =       0, ew_type =       0, nbflag  =       1, use_pme =       1
     vdwmeth =       1, eedmeth =       1, netfrc  =       1
     Box X =   71.408   Box Y =   63.113   Box Z =   63.890
     Alpha =   90.000   Beta  =   90.000   Gamma =   90.000
     NFFT1 =   72       NFFT2 =   64       NFFT3 =   64
     Cutoff=    9.000   Tol   =0.100E-04
     Ewald Coefficient =  0.30768
     Interpolation order =    4

--------------------------------------------------------------------------------
   3.  ATOMIC COORDINATES AND VELOCITIES
--------------------------------------------------------------------------------

default_name
 begin time read from input coords =  4000.000 ps

           Begin reading energy term weight changes/NMR restraints
 WEIGHT CHANGES:
 DUMPFREQ     10      0    0.000000    0.000000      0      0
                         ** No weight changes given **

 RESTRAINTS:
 Requested file redirections:
  DISANG    = disres.rst
  DUMPAVE   = dist_md.txt
 Restraints will be read from file: disres.rst
Here are comments from the DISANG input file:

                       Number of restraints read =     8

                  Done reading weight changes/NMR restraints

 Number of triangulated 3-point waters found:     8461

     Sum of charges from parm topology file =  -0.00000013
     Forcing neutrality...

--------------------------------------------------------------------------------
   4.  RESULTS
 NSTEP =   500000   TIME(PS) =    5000.000  TEMP(K) =   300.41  PRESS =     1.7
 Etot   =    -71144.8687  EKtot   =     17776.5859  EPtot      =    -88921.4546
 BOND   =       673.8451  ANGLE   =      1883.4962  DIHED      =      2862.7859
 1-4 NB =       800.5021  1-4 EEL =      9015.4131  VDWAALS    =      9944.8312
 EELEC  =   -114110.8290  EHBOND  =         0.0000  RESTRAINT  =         8.5008
 EAMBER (non-restraint)  =    -88929.9554
 EKCMT  =      7591.2843  VIRIAL  =      7581.0203  VOLUME     =    287357.3081
                                                    Density    =         1.0278
 ------------------------------------------------------------------------------

      A V E R A G E S   O V E R      50 S T E P S

 NSTEP = 25000000   TIME(PS) =   54000.000  TEMP(K) =   300.22  PRESS =    -7.4
 Etot   =    -70986.0051  EKtot   =     17765.3336  EPtot      =    -88751.3386
 BOND   =       689.2753  ANGLE   =      1898.8608  DIHED      =      2842.7106
 1-4 NB =       807.3413  1-4 EEL =      8934.9578  VDWAALS    =     10030.1974
 EELEC  =   -113963.4177  EHBOND  =         0.0000  RESTRAINT  =         8.7358
 EAMBER (non-restraint)  =    -88760.0744
 EKCMT  =      7613.7964  VIRIAL  =      7659.3776  VOLUME     =    287674.5375
                                                    Density    =         1.0267
 ------------------------------------------------------------------------------

      R M S  F L U C T U A T I O N S

 NSTEP = 25000000   TIME(PS) =   54000.000  TEMP(K) =     1.53  PRESS =   144.3
 Etot   =       182.9753  EKtot   =        90.4151  EPtot      =       142.0062
 BOND   =        22.4071  ANGLE   =        35.1824  DIHED      =        22.5743
 1-4 NB =        13.1297  1-4 EEL =        47.1668  VDWAALS    =       122.4802
 EELEC  =       199.1281  EHBOND  =         0.0000  RESTRAINT  =         2.2521
 EAMBER (non-restraint)  =       139.7541
 EKCMT  =        67.3515  VIRIAL  =       905.1124  VOLUME     =       407.3453
                                                    Density    =         0.0015
 ------------------------------------------------------------------------------
